Started running file 654.roms_s-842B.champsimtrace.xz at time Thu Apr 14 21:38:51 CDT 2022 with prefetcher spp-dev

*** ChampSim Multicore Out-of-Order Simulator ***

Warmup Instructions: 200000000
Simulation Instructions: 1000000000
Number of CPUs: 1
Off-chip DRAM Size: 4 GiB Channels: 1 Width: 64-bit Data Rate: 3200 MT/s

VirtualMemory physical capacity: 8588881920 num_ppages: 2096895
VirtualMemory page size: 4096 log2_page_size: 12

CPU 0 runs /home/faculty/p/pgratz/dpc3_traces/654.roms_s-842B.champsimtrace.xz
CPU 0 Bimodal branch predictor
Basic BTB sets: 1024 ways: 8 indirect buffer size: 4096 RAS size: 64
SPP-DEV original prefetcher
Heartbeat CPU 0 instructions: 10000000 cycles: 2501439 heartbeat IPC: 3.9977 cumulative IPC: 3.9977 (Simulation time: 0 hr 0 min 26 sec) 
Heartbeat CPU 0 instructions: 20000001 cycles: 5003215 heartbeat IPC: 3.99716 cumulative IPC: 3.99743 (Simulation time: 0 hr 0 min 52 sec) 
Heartbeat CPU 0 instructions: 30000003 cycles: 7504019 heartbeat IPC: 3.99871 cumulative IPC: 3.99786 (Simulation time: 0 hr 1 min 17 sec) 
Heartbeat CPU 0 instructions: 40000003 cycles: 10005951 heartbeat IPC: 3.99691 cumulative IPC: 3.99762 (Simulation time: 0 hr 1 min 43 sec) 
Heartbeat CPU 0 instructions: 50000003 cycles: 12510302 heartbeat IPC: 3.99305 cumulative IPC: 3.99671 (Simulation time: 0 hr 2 min 10 sec) 
Heartbeat CPU 0 instructions: 60000002 cycles: 15011752 heartbeat IPC: 3.99768 cumulative IPC: 3.99687 (Simulation time: 0 hr 2 min 36 sec) 
Heartbeat CPU 0 instructions: 70000000 cycles: 17513043 heartbeat IPC: 3.99793 cumulative IPC: 3.99702 (Simulation time: 0 hr 3 min 2 sec) 
Heartbeat CPU 0 instructions: 80000002 cycles: 20014493 heartbeat IPC: 3.99768 cumulative IPC: 3.9971 (Simulation time: 0 hr 3 min 27 sec) 
Heartbeat CPU 0 instructions: 90000003 cycles: 22516265 heartbeat IPC: 3.99717 cumulative IPC: 3.99711 (Simulation time: 0 hr 3 min 53 sec) 
Heartbeat CPU 0 instructions: 100000000 cycles: 25016907 heartbeat IPC: 3.99897 cumulative IPC: 3.9973 (Simulation time: 0 hr 4 min 19 sec) 
Heartbeat CPU 0 instructions: 110000000 cycles: 27519162 heartbeat IPC: 3.9964 cumulative IPC: 3.99721 (Simulation time: 0 hr 4 min 45 sec) 
Heartbeat CPU 0 instructions: 120000001 cycles: 30020129 heartbeat IPC: 3.99845 cumulative IPC: 3.99732 (Simulation time: 0 hr 5 min 10 sec) 
Heartbeat CPU 0 instructions: 130000000 cycles: 32520450 heartbeat IPC: 3.99949 cumulative IPC: 3.99748 (Simulation time: 0 hr 5 min 35 sec) 
Heartbeat CPU 0 instructions: 140000002 cycles: 35022384 heartbeat IPC: 3.99691 cumulative IPC: 3.99744 (Simulation time: 0 hr 6 min 1 sec) 
Heartbeat CPU 0 instructions: 150000000 cycles: 37524316 heartbeat IPC: 3.99691 cumulative IPC: 3.99741 (Simulation time: 0 hr 6 min 27 sec) 
Heartbeat CPU 0 instructions: 160000002 cycles: 40025122 heartbeat IPC: 3.99871 cumulative IPC: 3.99749 (Simulation time: 0 hr 6 min 52 sec) 
Heartbeat CPU 0 instructions: 170000003 cycles: 42526573 heartbeat IPC: 3.99768 cumulative IPC: 3.9975 (Simulation time: 0 hr 7 min 19 sec) 
Heartbeat CPU 0 instructions: 180000003 cycles: 45029151 heartbeat IPC: 3.99588 cumulative IPC: 3.99741 (Simulation time: 0 hr 7 min 45 sec) 
Heartbeat CPU 0 instructions: 190000003 cycles: 47531086 heartbeat IPC: 3.99691 cumulative IPC: 3.99738 (Simulation time: 0 hr 8 min 11 sec) 
Heartbeat CPU 0 instructions: 200000000 cycles: 50032537 heartbeat IPC: 3.99768 cumulative IPC: 3.9974 (Simulation time: 0 hr 8 min 36 sec) 

Warmup complete CPU 0 instructions: 200000004 cycles: 50032538 (Simulation time: 0 hr 8 min 36 sec) 

Heartbeat CPU 0 instructions: 210000000 cycles: 58322203 heartbeat IPC: 1.20632 cumulative IPC: 1.20632 (Simulation time: 0 hr 9 min 3 sec) 
Heartbeat CPU 0 instructions: 220000000 cycles: 66390826 heartbeat IPC: 1.23937 cumulative IPC: 1.22262 (Simulation time: 0 hr 9 min 30 sec) 
Heartbeat CPU 0 instructions: 230000001 cycles: 74705160 heartbeat IPC: 1.20274 cumulative IPC: 1.21592 (Simulation time: 0 hr 9 min 56 sec) 
Heartbeat CPU 0 instructions: 240000000 cycles: 82796808 heartbeat IPC: 1.23584 cumulative IPC: 1.22084 (Simulation time: 0 hr 10 min 24 sec) 
Heartbeat CPU 0 instructions: 250000001 cycles: 90915977 heartbeat IPC: 1.23165 cumulative IPC: 1.22299 (Simulation time: 0 hr 10 min 52 sec) 
Heartbeat CPU 0 instructions: 260000000 cycles: 99158820 heartbeat IPC: 1.21317 cumulative IPC: 1.22134 (Simulation time: 0 hr 11 min 18 sec) 
Heartbeat CPU 0 instructions: 270000003 cycles: 107274866 heartbeat IPC: 1.23213 cumulative IPC: 1.22287 (Simulation time: 0 hr 11 min 45 sec) 
Heartbeat CPU 0 instructions: 280000000 cycles: 115459083 heartbeat IPC: 1.22186 cumulative IPC: 1.22275 (Simulation time: 0 hr 12 min 12 sec) 
Heartbeat CPU 0 instructions: 290000000 cycles: 123776691 heartbeat IPC: 1.20227 cumulative IPC: 1.22044 (Simulation time: 0 hr 12 min 38 sec) 
Heartbeat CPU 0 instructions: 300000002 cycles: 132018186 heartbeat IPC: 1.21337 cumulative IPC: 1.21973 (Simulation time: 0 hr 13 min 5 sec) 
Heartbeat CPU 0 instructions: 310000000 cycles: 140360081 heartbeat IPC: 1.19877 cumulative IPC: 1.21779 (Simulation time: 0 hr 13 min 31 sec) 
Heartbeat CPU 0 instructions: 320000004 cycles: 148702074 heartbeat IPC: 1.19875 cumulative IPC: 1.21618 (Simulation time: 0 hr 13 min 57 sec) 
Heartbeat CPU 0 instructions: 330000000 cycles: 157044288 heartbeat IPC: 1.19872 cumulative IPC: 1.21482 (Simulation time: 0 hr 14 min 22 sec) 
Heartbeat CPU 0 instructions: 340000001 cycles: 165282943 heartbeat IPC: 1.21379 cumulative IPC: 1.21475 (Simulation time: 0 hr 14 min 49 sec) 
Heartbeat CPU 0 instructions: 350000000 cycles: 173596172 heartbeat IPC: 1.2029 cumulative IPC: 1.21395 (Simulation time: 0 hr 15 min 15 sec) 
Heartbeat CPU 0 instructions: 360000001 cycles: 181887467 heartbeat IPC: 1.20608 cumulative IPC: 1.21345 (Simulation time: 0 hr 15 min 41 sec) 
Heartbeat CPU 0 instructions: 370000000 cycles: 190149706 heartbeat IPC: 1.21033 cumulative IPC: 1.21327 (Simulation time: 0 hr 16 min 8 sec) 
Heartbeat CPU 0 instructions: 380000002 cycles: 197811103 heartbeat IPC: 1.30525 cumulative IPC: 1.21804 (Simulation time: 0 hr 16 min 38 sec) 
Heartbeat CPU 0 instructions: 390000004 cycles: 205894094 heartbeat IPC: 1.23717 cumulative IPC: 1.21903 (Simulation time: 0 hr 17 min 6 sec) 
Heartbeat CPU 0 instructions: 400000003 cycles: 214157086 heartbeat IPC: 1.21022 cumulative IPC: 1.21859 (Simulation time: 0 hr 17 min 34 sec) 
Heartbeat CPU 0 instructions: 410000002 cycles: 222449058 heartbeat IPC: 1.20599 cumulative IPC: 1.21798 (Simulation time: 0 hr 18 min 0 sec) 
Heartbeat CPU 0 instructions: 420000002 cycles: 230765650 heartbeat IPC: 1.20242 cumulative IPC: 1.21726 (Simulation time: 0 hr 18 min 26 sec) 
Heartbeat CPU 0 instructions: 430000004 cycles: 238603991 heartbeat IPC: 1.27578 cumulative IPC: 1.2197 (Simulation time: 0 hr 18 min 56 sec) 
Heartbeat CPU 0 instructions: 440000000 cycles: 246627168 heartbeat IPC: 1.24639 cumulative IPC: 1.22079 (Simulation time: 0 hr 19 min 24 sec) 
Heartbeat CPU 0 instructions: 450000002 cycles: 253899967 heartbeat IPC: 1.37499 cumulative IPC: 1.22629 (Simulation time: 0 hr 19 min 57 sec) 
Heartbeat CPU 0 instructions: 460000001 cycles: 262190529 heartbeat IPC: 1.20619 cumulative IPC: 1.2255 (Simulation time: 0 hr 20 min 24 sec) 
Heartbeat CPU 0 instructions: 470000003 cycles: 270458181 heartbeat IPC: 1.20953 cumulative IPC: 1.2249 (Simulation time: 0 hr 20 min 50 sec) 
Heartbeat CPU 0 instructions: 480000002 cycles: 278674674 heartbeat IPC: 1.21706 cumulative IPC: 1.22462 (Simulation time: 0 hr 21 min 17 sec) 
Heartbeat CPU 0 instructions: 490000000 cycles: 295164668 heartbeat IPC: 0.606428 cumulative IPC: 1.18304 (Simulation time: 0 hr 22 min 37 sec) 
Heartbeat CPU 0 instructions: 500000003 cycles: 301242645 heartbeat IPC: 1.64528 cumulative IPC: 1.19422 (Simulation time: 0 hr 23 min 27 sec) 
Heartbeat CPU 0 instructions: 510000000 cycles: 307321655 heartbeat IPC: 1.645 cumulative IPC: 1.20487 (Simulation time: 0 hr 24 min 17 sec) 
Heartbeat CPU 0 instructions: 520000000 cycles: 313389642 heartbeat IPC: 1.64799 cumulative IPC: 1.21508 (Simulation time: 0 hr 25 min 7 sec) 
Heartbeat CPU 0 instructions: 530000000 cycles: 319464291 heartbeat IPC: 1.64619 cumulative IPC: 1.2248 (Simulation time: 0 hr 25 min 57 sec) 
Heartbeat CPU 0 instructions: 540000000 cycles: 325534255 heartbeat IPC: 1.64746 cumulative IPC: 1.23411 (Simulation time: 0 hr 26 min 47 sec) 
Heartbeat CPU 0 instructions: 550000002 cycles: 331602944 heartbeat IPC: 1.6478 cumulative IPC: 1.24303 (Simulation time: 0 hr 27 min 37 sec) 
Heartbeat CPU 0 instructions: 560000000 cycles: 338891628 heartbeat IPC: 1.37199 cumulative IPC: 1.24628 (Simulation time: 0 hr 28 min 31 sec) 
Heartbeat CPU 0 instructions: 570000003 cycles: 351593669 heartbeat IPC: 0.787275 cumulative IPC: 1.22695 (Simulation time: 0 hr 29 min 52 sec) 
Heartbeat CPU 0 instructions: 580000001 cycles: 357664925 heartbeat IPC: 1.64711 cumulative IPC: 1.23524 (Simulation time: 0 hr 30 min 42 sec) 
Heartbeat CPU 0 instructions: 590000003 cycles: 363737011 heartbeat IPC: 1.64688 cumulative IPC: 1.24321 (Simulation time: 0 hr 31 min 33 sec) 
Heartbeat CPU 0 instructions: 600000000 cycles: 369804633 heartbeat IPC: 1.64809 cumulative IPC: 1.25089 (Simulation time: 0 hr 32 min 23 sec) 
Heartbeat CPU 0 instructions: 610000002 cycles: 375883442 heartbeat IPC: 1.64506 cumulative IPC: 1.25824 (Simulation time: 0 hr 33 min 13 sec) 
Heartbeat CPU 0 instructions: 620000003 cycles: 381947713 heartbeat IPC: 1.649 cumulative IPC: 1.26538 (Simulation time: 0 hr 34 min 3 sec) 
Heartbeat CPU 0 instructions: 630000000 cycles: 388024034 heartbeat IPC: 1.64573 cumulative IPC: 1.27222 (Simulation time: 0 hr 34 min 53 sec) 
Heartbeat CPU 0 instructions: 640000000 cycles: 403010307 heartbeat IPC: 0.667277 cumulative IPC: 1.24654 (Simulation time: 0 hr 36 min 22 sec) 
Heartbeat CPU 0 instructions: 650000001 cycles: 409078343 heartbeat IPC: 1.64798 cumulative IPC: 1.25332 (Simulation time: 0 hr 37 min 12 sec) 
Heartbeat CPU 0 instructions: 660000004 cycles: 415155306 heartbeat IPC: 1.64556 cumulative IPC: 1.25985 (Simulation time: 0 hr 38 min 2 sec) 
Heartbeat CPU 0 instructions: 670000001 cycles: 421221021 heartbeat IPC: 1.64861 cumulative IPC: 1.2662 (Simulation time: 0 hr 38 min 52 sec) 
Heartbeat CPU 0 instructions: 680000003 cycles: 427295112 heartbeat IPC: 1.64634 cumulative IPC: 1.27232 (Simulation time: 0 hr 39 min 43 sec) 
Heartbeat CPU 0 instructions: 690000003 cycles: 433362488 heartbeat IPC: 1.64816 cumulative IPC: 1.27827 (Simulation time: 0 hr 40 min 33 sec) 
Heartbeat CPU 0 instructions: 700000001 cycles: 439432070 heartbeat IPC: 1.64756 cumulative IPC: 1.28403 (Simulation time: 0 hr 41 min 23 sec) 
Heartbeat CPU 0 instructions: 710000002 cycles: 452199405 heartbeat IPC: 0.783249 cumulative IPC: 1.26813 (Simulation time: 0 hr 42 min 42 sec) 
Heartbeat CPU 0 instructions: 720000003 cycles: 459927301 heartbeat IPC: 1.29401 cumulative IPC: 1.26862 (Simulation time: 0 hr 43 min 41 sec) 
Heartbeat CPU 0 instructions: 730000003 cycles: 465999664 heartbeat IPC: 1.64681 cumulative IPC: 1.27414 (Simulation time: 0 hr 44 min 31 sec) 
Heartbeat CPU 0 instructions: 740000002 cycles: 472069493 heartbeat IPC: 1.64749 cumulative IPC: 1.27951 (Simulation time: 0 hr 45 min 22 sec) 
Heartbeat CPU 0 instructions: 750000004 cycles: 478138061 heartbeat IPC: 1.64784 cumulative IPC: 1.28473 (Simulation time: 0 hr 46 min 12 sec) 
Heartbeat CPU 0 instructions: 760000001 cycles: 484212342 heartbeat IPC: 1.64628 cumulative IPC: 1.28979 (Simulation time: 0 hr 47 min 2 sec) 
Heartbeat CPU 0 instructions: 770000001 cycles: 490275160 heartbeat IPC: 1.6494 cumulative IPC: 1.29474 (Simulation time: 0 hr 47 min 52 sec) 
Heartbeat CPU 0 instructions: 780000001 cycles: 496351455 heartbeat IPC: 1.64574 cumulative IPC: 1.29952 (Simulation time: 0 hr 48 min 43 sec) 
Heartbeat CPU 0 instructions: 790000003 cycles: 510920570 heartbeat IPC: 0.686384 cumulative IPC: 1.28014 (Simulation time: 0 hr 50 min 10 sec) 
Heartbeat CPU 0 instructions: 800000001 cycles: 516992229 heartbeat IPC: 1.647 cumulative IPC: 1.28491 (Simulation time: 0 hr 51 min 1 sec) 
Heartbeat CPU 0 instructions: 810000001 cycles: 523066301 heartbeat IPC: 1.64634 cumulative IPC: 1.28955 (Simulation time: 0 hr 51 min 51 sec) 
Heartbeat CPU 0 instructions: 820000000 cycles: 529129686 heartbeat IPC: 1.64924 cumulative IPC: 1.2941 (Simulation time: 0 hr 52 min 41 sec) 
Heartbeat CPU 0 instructions: 830000002 cycles: 535206968 heartbeat IPC: 1.64547 cumulative IPC: 1.2985 (Simulation time: 0 hr 53 min 31 sec) 
Heartbeat CPU 0 instructions: 840000004 cycles: 541275100 heartbeat IPC: 1.64795 cumulative IPC: 1.30282 (Simulation time: 0 hr 54 min 21 sec) 
Heartbeat CPU 0 instructions: 850000004 cycles: 547342945 heartbeat IPC: 1.64803 cumulative IPC: 1.30703 (Simulation time: 0 hr 55 min 11 sec) 
Heartbeat CPU 0 instructions: 860000000 cycles: 561461462 heartbeat IPC: 0.708289 cumulative IPC: 1.2905 (Simulation time: 0 hr 56 min 37 sec) 
Heartbeat CPU 0 instructions: 870000001 cycles: 567527781 heartbeat IPC: 1.64845 cumulative IPC: 1.2947 (Simulation time: 0 hr 57 min 27 sec) 
Heartbeat CPU 0 instructions: 880000002 cycles: 573603795 heartbeat IPC: 1.64582 cumulative IPC: 1.29877 (Simulation time: 0 hr 58 min 17 sec) 
Heartbeat CPU 0 instructions: 890000004 cycles: 579668834 heartbeat IPC: 1.64879 cumulative IPC: 1.30278 (Simulation time: 0 hr 59 min 7 sec) 
Heartbeat CPU 0 instructions: 900000003 cycles: 585739514 heartbeat IPC: 1.64726 cumulative IPC: 1.30668 (Simulation time: 0 hr 59 min 57 sec) 
Heartbeat CPU 0 instructions: 910000000 cycles: 591812975 heartbeat IPC: 1.64651 cumulative IPC: 1.31049 (Simulation time: 1 hr 0 min 47 sec) 
Heartbeat CPU 0 instructions: 920000000 cycles: 597877057 heartbeat IPC: 1.64905 cumulative IPC: 1.31424 (Simulation time: 1 hr 1 min 38 sec) 
Heartbeat CPU 0 instructions: 930000002 cycles: 603953813 heartbeat IPC: 1.64562 cumulative IPC: 1.31788 (Simulation time: 1 hr 2 min 28 sec) 
Heartbeat CPU 0 instructions: 940000000 cycles: 618044923 heartbeat IPC: 0.709667 cumulative IPC: 1.30279 (Simulation time: 1 hr 3 min 54 sec) 
Heartbeat CPU 0 instructions: 950000002 cycles: 624117118 heartbeat IPC: 1.64685 cumulative IPC: 1.30643 (Simulation time: 1 hr 4 min 44 sec) 
Heartbeat CPU 0 instructions: 960000000 cycles: 630189237 heartbeat IPC: 1.64687 cumulative IPC: 1.30999 (Simulation time: 1 hr 5 min 34 sec) 
Heartbeat CPU 0 instructions: 970000002 cycles: 636254580 heartbeat IPC: 1.64871 cumulative IPC: 1.3135 (Simulation time: 1 hr 6 min 24 sec) 
Heartbeat CPU 0 instructions: 980000001 cycles: 642332226 heartbeat IPC: 1.64537 cumulative IPC: 1.3169 (Simulation time: 1 hr 7 min 15 sec) 
Heartbeat CPU 0 instructions: 990000003 cycles: 648398690 heartbeat IPC: 1.64841 cumulative IPC: 1.32026 (Simulation time: 1 hr 8 min 5 sec) 
Heartbeat CPU 0 instructions: 1000000003 cycles: 654471011 heartbeat IPC: 1.64682 cumulative IPC: 1.32354 (Simulation time: 1 hr 8 min 55 sec) 
Heartbeat CPU 0 instructions: 1010000002 cycles: 669436595 heartbeat IPC: 0.6682 cumulative IPC: 1.30771 (Simulation time: 1 hr 10 min 24 sec) 
Heartbeat CPU 0 instructions: 1020000002 cycles: 675503225 heartbeat IPC: 1.64836 cumulative IPC: 1.31101 (Simulation time: 1 hr 11 min 15 sec) 
Heartbeat CPU 0 instructions: 1030000000 cycles: 681579555 heartbeat IPC: 1.64573 cumulative IPC: 1.31423 (Simulation time: 1 hr 12 min 5 sec) 
Heartbeat CPU 0 instructions: 1040000000 cycles: 687644086 heartbeat IPC: 1.64893 cumulative IPC: 1.31742 (Simulation time: 1 hr 12 min 56 sec) 
Heartbeat CPU 0 instructions: 1050000000 cycles: 693717096 heartbeat IPC: 1.64663 cumulative IPC: 1.32052 (Simulation time: 1 hr 13 min 46 sec) 
Heartbeat CPU 0 instructions: 1060000000 cycles: 699787856 heartbeat IPC: 1.64724 cumulative IPC: 1.32358 (Simulation time: 1 hr 14 min 36 sec) 
Heartbeat CPU 0 instructions: 1070000001 cycles: 705856398 heartbeat IPC: 1.64784 cumulative IPC: 1.32658 (Simulation time: 1 hr 15 min 27 sec) 
Heartbeat CPU 0 instructions: 1080000002 cycles: 715757564 heartbeat IPC: 1.00998 cumulative IPC: 1.32187 (Simulation time: 1 hr 16 min 31 sec) 
Heartbeat CPU 0 instructions: 1090000000 cycles: 725815170 heartbeat IPC: 0.994272 cumulative IPC: 1.31699 (Simulation time: 1 hr 17 min 43 sec) 
Heartbeat CPU 0 instructions: 1100000000 cycles: 731886609 heartbeat IPC: 1.64706 cumulative IPC: 1.31993 (Simulation time: 1 hr 18 min 33 sec) 
Heartbeat CPU 0 instructions: 1110000002 cycles: 737958290 heartbeat IPC: 1.64699 cumulative IPC: 1.32282 (Simulation time: 1 hr 19 min 23 sec) 
Heartbeat CPU 0 instructions: 1120000000 cycles: 744024213 heartbeat IPC: 1.64855 cumulative IPC: 1.32566 (Simulation time: 1 hr 20 min 13 sec) 
Heartbeat CPU 0 instructions: 1130000000 cycles: 750100892 heartbeat IPC: 1.64564 cumulative IPC: 1.32844 (Simulation time: 1 hr 21 min 3 sec) 
Heartbeat CPU 0 instructions: 1140000000 cycles: 756164972 heartbeat IPC: 1.64905 cumulative IPC: 1.33119 (Simulation time: 1 hr 21 min 53 sec) 
Heartbeat CPU 0 instructions: 1150000001 cycles: 762239915 heartbeat IPC: 1.64611 cumulative IPC: 1.33388 (Simulation time: 1 hr 22 min 44 sec) 
Heartbeat CPU 0 instructions: 1160000001 cycles: 777505575 heartbeat IPC: 0.655065 cumulative IPC: 1.31964 (Simulation time: 1 hr 24 min 13 sec) 
Heartbeat CPU 0 instructions: 1170000000 cycles: 783574838 heartbeat IPC: 1.64765 cumulative IPC: 1.32235 (Simulation time: 1 hr 25 min 3 sec) 
Heartbeat CPU 0 instructions: 1180000000 cycles: 789651476 heartbeat IPC: 1.64565 cumulative IPC: 1.32501 (Simulation time: 1 hr 25 min 53 sec) 
Heartbeat CPU 0 instructions: 1190000001 cycles: 795714630 heartbeat IPC: 1.64931 cumulative IPC: 1.32764 (Simulation time: 1 hr 26 min 43 sec) 
Heartbeat CPU 0 instructions: 1200000000 cycles: 801790031 heartbeat IPC: 1.64598 cumulative IPC: 1.33022 (Simulation time: 1 hr 27 min 33 sec) 
Finished CPU 0 instructions: 1000000000 cycles: 751757505 cumulative IPC: 1.33022 (Simulation time: 1 hr 27 min 33 sec) 

ChampSim completed all CPUs

Region of Interest Statistics

CPU 0 cumulative IPC: 1.33022 instructions: 1000000000 cycles: 751757505
cpu0_DTLB TOTAL     ACCESS:  164923060  HIT:  164868099  MISS:      54961
cpu0_DTLB LOAD      ACCESS:  113706940  HIT:  113667690  MISS:      39250
cpu0_DTLB RFO       ACCESS:   51216120  HIT:   51200409  MISS:      15711
cpu0_DTLB PREFETCH  ACCESS:          0  HIT:          0  MISS:          0
cpu0_DTLB WRITEBACK ACCESS:          0  HIT:          0  MISS:          0
cpu0_DTLB TRANSLATION ACCESS:          0  HIT:          0  MISS:          0
cpu0_DTLB PREFETCH  REQUESTED:          0  ISSUED:          0  USEFUL:          0  USELESS:          0
cpu0_DTLB AVERAGE MISS LATENCY: 78.0418 cycles
cpu0_ITLB TOTAL     ACCESS:   65995911  HIT:   65995904  MISS:          7
cpu0_ITLB LOAD      ACCESS:   65995911  HIT:   65995904  MISS:          7
cpu0_ITLB RFO       ACCESS:          0  HIT:          0  MISS:          0
cpu0_ITLB PREFETCH  ACCESS:          0  HIT:          0  MISS:          0
cpu0_ITLB WRITEBACK ACCESS:          0  HIT:          0  MISS:          0
cpu0_ITLB TRANSLATION ACCESS:          0  HIT:          0  MISS:          0
cpu0_ITLB PREFETCH  REQUESTED:          0  ISSUED:          0  USEFUL:          0  USELESS:          0
cpu0_ITLB AVERAGE MISS LATENCY: 355.857 cycles
cpu0_L1I TOTAL     ACCESS:   64690177  HIT:   64690106  MISS:         71
cpu0_L1I LOAD      ACCESS:   64690177  HIT:   64690106  MISS:         71
cpu0_L1I RFO       ACCESS:          0  HIT:          0  MISS:          0
cpu0_L1I PREFETCH  ACCESS:          0  HIT:          0  MISS:          0
cpu0_L1I WRITEBACK ACCESS:          0  HIT:          0  MISS:          0
cpu0_L1I TRANSLATION ACCESS:          0  HIT:          0  MISS:          0
cpu0_L1I PREFETCH  REQUESTED:          0  ISSUED:          0  USEFUL:          0  USELESS:          0
cpu0_L1I AVERAGE MISS LATENCY: 198.606 cycles
cpu0_STLB TOTAL     ACCESS:      54968  HIT:      37397  MISS:      17571
cpu0_STLB LOAD      ACCESS:      39257  HIT:      27193  MISS:      12064
cpu0_STLB RFO       ACCESS:      15711  HIT:      10204  MISS:       5507
cpu0_STLB PREFETCH  ACCESS:          0  HIT:          0  MISS:          0
cpu0_STLB WRITEBACK ACCESS:          0  HIT:          0  MISS:          0
cpu0_STLB TRANSLATION ACCESS:          0  HIT:          0  MISS:          0
cpu0_STLB PREFETCH  REQUESTED:          0  ISSUED:          0  USEFUL:          0  USELESS:          0
cpu0_STLB AVERAGE MISS LATENCY: 209.837 cycles
cpu0_L1D TOTAL     ACCESS:  206421482  HIT:  203919018  MISS:    2502464
cpu0_L1D LOAD      ACCESS:  116981988  HIT:  115479230  MISS:    1502758
cpu0_L1D RFO       ACCESS:   89421966  HIT:   88422299  MISS:     999667
cpu0_L1D PREFETCH  ACCESS:          0  HIT:          0  MISS:          0
cpu0_L1D WRITEBACK ACCESS:          0  HIT:          0  MISS:          0
cpu0_L1D TRANSLATION ACCESS:      17528  HIT:      17489  MISS:         39
cpu0_L1D PREFETCH  REQUESTED:          0  ISSUED:          0  USEFUL:          0  USELESS:          0
cpu0_L1D AVERAGE MISS LATENCY: 410.063 cycles
cpu0_L2C TOTAL     ACCESS:    4185911  HIT:    1671613  MISS:    2514298
cpu0_L2C LOAD      ACCESS:    1502829  HIT:     665644  MISS:     837185
cpu0_L2C RFO       ACCESS:     999667  HIT:        399  MISS:     999268
cpu0_L2C PREFETCH  ACCESS:     683607  HIT:       7820  MISS:     675787
cpu0_L2C WRITEBACK ACCESS:     999769  HIT:     997750  MISS:       2019
cpu0_L2C TRANSLATION ACCESS:         39  HIT:          0  MISS:         39
cpu0_L2C PREFETCH  REQUESTED:   13012829  ISSUED:   11671539  USEFUL:     924503  USELESS:      10290
cpu0_L2C AVERAGE MISS LATENCY: 366.201 cycles
LLC TOTAL     ACCESS:   10128519  HIT:    7488640  MISS:    2639879
LLC LOAD      ACCESS:     578172  HIT:     347548  MISS:     230624
LLC RFO       ACCESS:     999268  HIT:         91  MISS:     999177
LLC PREFETCH  ACCESS:    7551794  HIT:    6143803  MISS:    1407991
LLC WRITEBACK ACCESS:     999246  HIT:     997198  MISS:       2048
LLC TRANSLATION ACCESS:         39  HIT:          0  MISS:         39
LLC PREFETCH  REQUESTED:          0  ISSUED:          0  USEFUL:          0  USELESS:          0
LLC AVERAGE MISS LATENCY: 699.108 cycles

DRAM Statistics
 CHANNEL 0
 RQ ROW_BUFFER_HIT:     340708  ROW_BUFFER_MISS:    2297123
 DBUS AVG_CONGESTED_CYCLE:     3.9814
 WQ ROW_BUFFER_HIT:     121030  ROW_BUFFER_MISS:     877579  FULL:          0


CPU 0 Branch Prediction Accuracy: 90.3742% MPKI: 11.5802 Average ROB Occupancy at Mispredict: 21.4129
Branch type MPKI
BRANCH_DIRECT_JUMP: 8e-06
BRANCH_INDIRECT: 0
BRANCH_CONDITIONAL: 11.5801
BRANCH_DIRECT_CALL: 8e-06
BRANCH_INDIRECT_CALL: 0
BRANCH_RETURN: 9e-06

***************** Done with 654.roms_s-842B.champsimtrace.xz using spp-dev, on Thu Apr 14 23:06:24 CDT 2022 ******************
