Started running file 649.fotonik3d_s-1176B.champsimtrace.xz at time Thu Apr 14 20:40:51 CDT 2022 with prefetcher spp-dev

*** ChampSim Multicore Out-of-Order Simulator ***

Warmup Instructions: 200000000
Simulation Instructions: 1000000000
Number of CPUs: 1
Off-chip DRAM Size: 4 GiB Channels: 1 Width: 64-bit Data Rate: 3200 MT/s

VirtualMemory physical capacity: 8588881920 num_ppages: 2096895
VirtualMemory page size: 4096 log2_page_size: 12

CPU 0 runs /home/faculty/p/pgratz/dpc3_traces/649.fotonik3d_s-1176B.champsimtrace.xz
CPU 0 Bimodal branch predictor
Basic BTB sets: 1024 ways: 8 indirect buffer size: 4096 RAS size: 64
SPP-DEV original prefetcher
Heartbeat CPU 0 instructions: 10000001 cycles: 3507808 heartbeat IPC: 2.85078 cumulative IPC: 2.85078 (Simulation time: 0 hr 0 min 45 sec) 
Heartbeat CPU 0 instructions: 20000001 cycles: 7015495 heartbeat IPC: 2.85088 cumulative IPC: 2.85083 (Simulation time: 0 hr 1 min 29 sec) 
Heartbeat CPU 0 instructions: 30000000 cycles: 10523177 heartbeat IPC: 2.85089 cumulative IPC: 2.85085 (Simulation time: 0 hr 2 min 13 sec) 
Heartbeat CPU 0 instructions: 40000003 cycles: 14030863 heartbeat IPC: 2.85088 cumulative IPC: 2.85086 (Simulation time: 0 hr 2 min 58 sec) 
Heartbeat CPU 0 instructions: 50000004 cycles: 17538547 heartbeat IPC: 2.85088 cumulative IPC: 2.85086 (Simulation time: 0 hr 3 min 42 sec) 
Heartbeat CPU 0 instructions: 60000003 cycles: 21046282 heartbeat IPC: 2.85084 cumulative IPC: 2.85086 (Simulation time: 0 hr 4 min 26 sec) 
Heartbeat CPU 0 instructions: 70000004 cycles: 24553970 heartbeat IPC: 2.85088 cumulative IPC: 2.85086 (Simulation time: 0 hr 5 min 10 sec) 
Heartbeat CPU 0 instructions: 80000000 cycles: 28061650 heartbeat IPC: 2.85089 cumulative IPC: 2.85087 (Simulation time: 0 hr 5 min 55 sec) 
Heartbeat CPU 0 instructions: 90000000 cycles: 31569336 heartbeat IPC: 2.85088 cumulative IPC: 2.85087 (Simulation time: 0 hr 6 min 39 sec) 
Heartbeat CPU 0 instructions: 100000001 cycles: 35077024 heartbeat IPC: 2.85088 cumulative IPC: 2.85087 (Simulation time: 0 hr 7 min 23 sec) 
Heartbeat CPU 0 instructions: 110000004 cycles: 38584712 heartbeat IPC: 2.85088 cumulative IPC: 2.85087 (Simulation time: 0 hr 8 min 7 sec) 
Heartbeat CPU 0 instructions: 120000003 cycles: 42092395 heartbeat IPC: 2.85088 cumulative IPC: 2.85087 (Simulation time: 0 hr 8 min 52 sec) 
Heartbeat CPU 0 instructions: 130000003 cycles: 45600081 heartbeat IPC: 2.85088 cumulative IPC: 2.85087 (Simulation time: 0 hr 9 min 36 sec) 
Heartbeat CPU 0 instructions: 140000000 cycles: 49107765 heartbeat IPC: 2.85088 cumulative IPC: 2.85087 (Simulation time: 0 hr 10 min 20 sec) 
Heartbeat CPU 0 instructions: 150000004 cycles: 52615450 heartbeat IPC: 2.85088 cumulative IPC: 2.85087 (Simulation time: 0 hr 11 min 4 sec) 
Heartbeat CPU 0 instructions: 160000002 cycles: 56123135 heartbeat IPC: 2.85088 cumulative IPC: 2.85087 (Simulation time: 0 hr 11 min 48 sec) 
Heartbeat CPU 0 instructions: 170000000 cycles: 59630869 heartbeat IPC: 2.85084 cumulative IPC: 2.85087 (Simulation time: 0 hr 12 min 33 sec) 
Heartbeat CPU 0 instructions: 180000000 cycles: 63138555 heartbeat IPC: 2.85088 cumulative IPC: 2.85087 (Simulation time: 0 hr 13 min 17 sec) 
Heartbeat CPU 0 instructions: 190000004 cycles: 66646239 heartbeat IPC: 2.85089 cumulative IPC: 2.85087 (Simulation time: 0 hr 14 min 1 sec) 
Heartbeat CPU 0 instructions: 200000003 cycles: 70153923 heartbeat IPC: 2.85088 cumulative IPC: 2.85087 (Simulation time: 0 hr 14 min 45 sec) 

Warmup complete CPU 0 instructions: 200000003 cycles: 70153923 (Simulation time: 0 hr 14 min 45 sec) 

Heartbeat CPU 0 instructions: 210000003 cycles: 75711360 heartbeat IPC: 1.79939 cumulative IPC: 1.79939 (Simulation time: 0 hr 15 min 42 sec) 
Heartbeat CPU 0 instructions: 220000001 cycles: 81244375 heartbeat IPC: 1.80733 cumulative IPC: 1.80335 (Simulation time: 0 hr 16 min 40 sec) 
Heartbeat CPU 0 instructions: 230000004 cycles: 86802391 heartbeat IPC: 1.7992 cumulative IPC: 1.80197 (Simulation time: 0 hr 17 min 37 sec) 
Heartbeat CPU 0 instructions: 240000004 cycles: 92369935 heartbeat IPC: 1.79612 cumulative IPC: 1.8005 (Simulation time: 0 hr 18 min 35 sec) 
Heartbeat CPU 0 instructions: 250000000 cycles: 97952661 heartbeat IPC: 1.79124 cumulative IPC: 1.79864 (Simulation time: 0 hr 19 min 32 sec) 
Heartbeat CPU 0 instructions: 260000001 cycles: 103521919 heartbeat IPC: 1.79557 cumulative IPC: 1.79813 (Simulation time: 0 hr 20 min 29 sec) 
Heartbeat CPU 0 instructions: 270000002 cycles: 109435488 heartbeat IPC: 1.69103 cumulative IPC: 1.78201 (Simulation time: 0 hr 21 min 24 sec) 
Heartbeat CPU 0 instructions: 280000002 cycles: 115407245 heartbeat IPC: 1.67455 cumulative IPC: 1.76783 (Simulation time: 0 hr 22 min 16 sec) 
Heartbeat CPU 0 instructions: 290000002 cycles: 120996984 heartbeat IPC: 1.78899 cumulative IPC: 1.77015 (Simulation time: 0 hr 23 min 14 sec) 
Heartbeat CPU 0 instructions: 300000004 cycles: 126549267 heartbeat IPC: 1.80106 cumulative IPC: 1.7732 (Simulation time: 0 hr 24 min 11 sec) 
Heartbeat CPU 0 instructions: 310000003 cycles: 132141760 heartbeat IPC: 1.78811 cumulative IPC: 1.77454 (Simulation time: 0 hr 25 min 8 sec) 
Heartbeat CPU 0 instructions: 320000003 cycles: 137644282 heartbeat IPC: 1.81735 cumulative IPC: 1.77803 (Simulation time: 0 hr 26 min 6 sec) 
Heartbeat CPU 0 instructions: 330000002 cycles: 143249800 heartbeat IPC: 1.78396 cumulative IPC: 1.77849 (Simulation time: 0 hr 27 min 4 sec) 
Heartbeat CPU 0 instructions: 340000002 cycles: 148815234 heartbeat IPC: 1.79681 cumulative IPC: 1.77978 (Simulation time: 0 hr 28 min 1 sec) 
Heartbeat CPU 0 instructions: 350000002 cycles: 154422597 heartbeat IPC: 1.78337 cumulative IPC: 1.78002 (Simulation time: 0 hr 28 min 59 sec) 
Heartbeat CPU 0 instructions: 360000000 cycles: 159983161 heartbeat IPC: 1.79838 cumulative IPC: 1.78116 (Simulation time: 0 hr 29 min 57 sec) 
Heartbeat CPU 0 instructions: 370000000 cycles: 165558825 heartbeat IPC: 1.79351 cumulative IPC: 1.78188 (Simulation time: 0 hr 30 min 55 sec) 
Heartbeat CPU 0 instructions: 380000000 cycles: 171134164 heartbeat IPC: 1.79361 cumulative IPC: 1.78253 (Simulation time: 0 hr 31 min 52 sec) 
Heartbeat CPU 0 instructions: 390000004 cycles: 176709379 heartbeat IPC: 1.79365 cumulative IPC: 1.78311 (Simulation time: 0 hr 32 min 50 sec) 
Heartbeat CPU 0 instructions: 400000003 cycles: 182213495 heartbeat IPC: 1.81682 cumulative IPC: 1.78477 (Simulation time: 0 hr 33 min 48 sec) 
Heartbeat CPU 0 instructions: 410000002 cycles: 187732523 heartbeat IPC: 1.81191 cumulative IPC: 1.78604 (Simulation time: 0 hr 34 min 45 sec) 
Heartbeat CPU 0 instructions: 420000001 cycles: 193327116 heartbeat IPC: 1.78744 cumulative IPC: 1.7861 (Simulation time: 0 hr 35 min 43 sec) 
Heartbeat CPU 0 instructions: 430000003 cycles: 198906542 heartbeat IPC: 1.7923 cumulative IPC: 1.78637 (Simulation time: 0 hr 36 min 40 sec) 
Heartbeat CPU 0 instructions: 440000001 cycles: 204455589 heartbeat IPC: 1.80211 cumulative IPC: 1.78702 (Simulation time: 0 hr 37 min 37 sec) 
Heartbeat CPU 0 instructions: 450000004 cycles: 210049704 heartbeat IPC: 1.78759 cumulative IPC: 1.78704 (Simulation time: 0 hr 38 min 35 sec) 
Heartbeat CPU 0 instructions: 460000003 cycles: 215604845 heartbeat IPC: 1.80013 cumulative IPC: 1.78754 (Simulation time: 0 hr 39 min 32 sec) 
Heartbeat CPU 0 instructions: 470000000 cycles: 221195365 heartbeat IPC: 1.78874 cumulative IPC: 1.78759 (Simulation time: 0 hr 40 min 29 sec) 
Heartbeat CPU 0 instructions: 480000002 cycles: 226804935 heartbeat IPC: 1.78267 cumulative IPC: 1.78741 (Simulation time: 0 hr 41 min 27 sec) 
Heartbeat CPU 0 instructions: 490000003 cycles: 232378922 heartbeat IPC: 1.79405 cumulative IPC: 1.78764 (Simulation time: 0 hr 42 min 25 sec) 
Heartbeat CPU 0 instructions: 500000001 cycles: 237952290 heartbeat IPC: 1.79425 cumulative IPC: 1.78786 (Simulation time: 0 hr 43 min 22 sec) 
Heartbeat CPU 0 instructions: 510000000 cycles: 243501927 heartbeat IPC: 1.80192 cumulative IPC: 1.78831 (Simulation time: 0 hr 44 min 20 sec) 
Heartbeat CPU 0 instructions: 520000004 cycles: 249031994 heartbeat IPC: 1.8083 cumulative IPC: 1.78893 (Simulation time: 0 hr 45 min 17 sec) 
Heartbeat CPU 0 instructions: 530000000 cycles: 254571557 heartbeat IPC: 1.8052 cumulative IPC: 1.78942 (Simulation time: 0 hr 46 min 14 sec) 
Heartbeat CPU 0 instructions: 540000003 cycles: 260199601 heartbeat IPC: 1.77682 cumulative IPC: 1.78904 (Simulation time: 0 hr 47 min 12 sec) 
Heartbeat CPU 0 instructions: 550000000 cycles: 265751549 heartbeat IPC: 1.80117 cumulative IPC: 1.78939 (Simulation time: 0 hr 48 min 9 sec) 
Heartbeat CPU 0 instructions: 560000000 cycles: 271290140 heartbeat IPC: 1.80551 cumulative IPC: 1.78983 (Simulation time: 0 hr 49 min 6 sec) 
Heartbeat CPU 0 instructions: 570000001 cycles: 276910363 heartbeat IPC: 1.77929 cumulative IPC: 1.78955 (Simulation time: 0 hr 50 min 4 sec) 
Heartbeat CPU 0 instructions: 580000001 cycles: 282460041 heartbeat IPC: 1.80191 cumulative IPC: 1.78987 (Simulation time: 0 hr 51 min 1 sec) 
Heartbeat CPU 0 instructions: 590000002 cycles: 288022888 heartbeat IPC: 1.79764 cumulative IPC: 1.79007 (Simulation time: 0 hr 51 min 59 sec) 
Heartbeat CPU 0 instructions: 600000000 cycles: 293652918 heartbeat IPC: 1.77619 cumulative IPC: 1.78972 (Simulation time: 0 hr 52 min 56 sec) 
Heartbeat CPU 0 instructions: 610000000 cycles: 299252480 heartbeat IPC: 1.78585 cumulative IPC: 1.78962 (Simulation time: 0 hr 53 min 54 sec) 
Heartbeat CPU 0 instructions: 620000002 cycles: 304787223 heartbeat IPC: 1.80677 cumulative IPC: 1.79003 (Simulation time: 0 hr 54 min 51 sec) 
Heartbeat CPU 0 instructions: 630000004 cycles: 310321215 heartbeat IPC: 1.80701 cumulative IPC: 1.79042 (Simulation time: 0 hr 55 min 48 sec) 
Heartbeat CPU 0 instructions: 640000002 cycles: 315887558 heartbeat IPC: 1.79651 cumulative IPC: 1.79056 (Simulation time: 0 hr 56 min 45 sec) 
Heartbeat CPU 0 instructions: 650000002 cycles: 321434021 heartbeat IPC: 1.80295 cumulative IPC: 1.79083 (Simulation time: 0 hr 57 min 43 sec) 
Heartbeat CPU 0 instructions: 660000000 cycles: 327013111 heartbeat IPC: 1.79241 cumulative IPC: 1.79086 (Simulation time: 0 hr 58 min 40 sec) 
Heartbeat CPU 0 instructions: 670000001 cycles: 332594718 heartbeat IPC: 1.7916 cumulative IPC: 1.79088 (Simulation time: 0 hr 59 min 37 sec) 
Heartbeat CPU 0 instructions: 680000000 cycles: 338125984 heartbeat IPC: 1.8079 cumulative IPC: 1.79123 (Simulation time: 1 hr 0 min 35 sec) 
Heartbeat CPU 0 instructions: 690000000 cycles: 343674686 heartbeat IPC: 1.80222 cumulative IPC: 1.79145 (Simulation time: 1 hr 1 min 32 sec) 
Heartbeat CPU 0 instructions: 700000004 cycles: 349229748 heartbeat IPC: 1.80016 cumulative IPC: 1.79163 (Simulation time: 1 hr 2 min 29 sec) 
Heartbeat CPU 0 instructions: 710000002 cycles: 354722695 heartbeat IPC: 1.82052 cumulative IPC: 1.79219 (Simulation time: 1 hr 3 min 26 sec) 
Heartbeat CPU 0 instructions: 720000000 cycles: 360349316 heartbeat IPC: 1.77727 cumulative IPC: 1.7919 (Simulation time: 1 hr 4 min 24 sec) 
Heartbeat CPU 0 instructions: 730000000 cycles: 365903781 heartbeat IPC: 1.80035 cumulative IPC: 1.79205 (Simulation time: 1 hr 5 min 21 sec) 
Heartbeat CPU 0 instructions: 740000003 cycles: 371437278 heartbeat IPC: 1.80718 cumulative IPC: 1.79233 (Simulation time: 1 hr 6 min 18 sec) 
Heartbeat CPU 0 instructions: 750000001 cycles: 377014376 heartbeat IPC: 1.79305 cumulative IPC: 1.79235 (Simulation time: 1 hr 7 min 15 sec) 
Heartbeat CPU 0 instructions: 760000000 cycles: 382622352 heartbeat IPC: 1.78317 cumulative IPC: 1.79218 (Simulation time: 1 hr 8 min 13 sec) 
Heartbeat CPU 0 instructions: 770000003 cycles: 388157638 heartbeat IPC: 1.80659 cumulative IPC: 1.79243 (Simulation time: 1 hr 9 min 10 sec) 
Heartbeat CPU 0 instructions: 780000002 cycles: 393717534 heartbeat IPC: 1.79859 cumulative IPC: 1.79254 (Simulation time: 1 hr 10 min 7 sec) 
Heartbeat CPU 0 instructions: 790000003 cycles: 399326576 heartbeat IPC: 1.78284 cumulative IPC: 1.79237 (Simulation time: 1 hr 11 min 5 sec) 
Heartbeat CPU 0 instructions: 800000002 cycles: 404874194 heartbeat IPC: 1.80258 cumulative IPC: 1.79254 (Simulation time: 1 hr 12 min 2 sec) 
Heartbeat CPU 0 instructions: 810000002 cycles: 410441302 heartbeat IPC: 1.79626 cumulative IPC: 1.7926 (Simulation time: 1 hr 12 min 59 sec) 
Heartbeat CPU 0 instructions: 820000002 cycles: 416015804 heartbeat IPC: 1.79388 cumulative IPC: 1.79262 (Simulation time: 1 hr 13 min 56 sec) 
Heartbeat CPU 0 instructions: 830000000 cycles: 421521807 heartbeat IPC: 1.8162 cumulative IPC: 1.79299 (Simulation time: 1 hr 14 min 53 sec) 
Heartbeat CPU 0 instructions: 840000000 cycles: 427036881 heartbeat IPC: 1.81321 cumulative IPC: 1.79331 (Simulation time: 1 hr 15 min 50 sec) 
Heartbeat CPU 0 instructions: 850000004 cycles: 432596461 heartbeat IPC: 1.7987 cumulative IPC: 1.79339 (Simulation time: 1 hr 16 min 47 sec) 
Heartbeat CPU 0 instructions: 860000004 cycles: 438174103 heartbeat IPC: 1.79287 cumulative IPC: 1.79338 (Simulation time: 1 hr 17 min 45 sec) 
Heartbeat CPU 0 instructions: 870000000 cycles: 443722066 heartbeat IPC: 1.80246 cumulative IPC: 1.79351 (Simulation time: 1 hr 18 min 42 sec) 
Heartbeat CPU 0 instructions: 880000001 cycles: 449279450 heartbeat IPC: 1.79941 cumulative IPC: 1.7936 (Simulation time: 1 hr 19 min 39 sec) 
Heartbeat CPU 0 instructions: 890000002 cycles: 454802220 heartbeat IPC: 1.81069 cumulative IPC: 1.79385 (Simulation time: 1 hr 20 min 36 sec) 
Heartbeat CPU 0 instructions: 900000000 cycles: 460320289 heartbeat IPC: 1.81223 cumulative IPC: 1.79411 (Simulation time: 1 hr 21 min 33 sec) 
Heartbeat CPU 0 instructions: 910000002 cycles: 465912677 heartbeat IPC: 1.78815 cumulative IPC: 1.79402 (Simulation time: 1 hr 22 min 31 sec) 
Heartbeat CPU 0 instructions: 920000000 cycles: 471504150 heartbeat IPC: 1.78844 cumulative IPC: 1.79394 (Simulation time: 1 hr 23 min 28 sec) 
Heartbeat CPU 0 instructions: 930000000 cycles: 477099911 heartbeat IPC: 1.78707 cumulative IPC: 1.79385 (Simulation time: 1 hr 24 min 25 sec) 
Heartbeat CPU 0 instructions: 940000001 cycles: 482696185 heartbeat IPC: 1.7869 cumulative IPC: 1.79376 (Simulation time: 1 hr 25 min 23 sec) 
Heartbeat CPU 0 instructions: 950000001 cycles: 488255697 heartbeat IPC: 1.79872 cumulative IPC: 1.79382 (Simulation time: 1 hr 26 min 20 sec) 
Heartbeat CPU 0 instructions: 960000000 cycles: 493872242 heartbeat IPC: 1.78045 cumulative IPC: 1.79364 (Simulation time: 1 hr 27 min 17 sec) 
Heartbeat CPU 0 instructions: 970000001 cycles: 499436285 heartbeat IPC: 1.79725 cumulative IPC: 1.79369 (Simulation time: 1 hr 28 min 15 sec) 
Heartbeat CPU 0 instructions: 980000001 cycles: 505016004 heartbeat IPC: 1.7922 cumulative IPC: 1.79367 (Simulation time: 1 hr 29 min 12 sec) 
Heartbeat CPU 0 instructions: 990000003 cycles: 510546354 heartbeat IPC: 1.8082 cumulative IPC: 1.79385 (Simulation time: 1 hr 30 min 9 sec) 
Heartbeat CPU 0 instructions: 1000000003 cycles: 516091907 heartbeat IPC: 1.80325 cumulative IPC: 1.79397 (Simulation time: 1 hr 31 min 7 sec) 
Heartbeat CPU 0 instructions: 1010000002 cycles: 521641797 heartbeat IPC: 1.80184 cumulative IPC: 1.79407 (Simulation time: 1 hr 32 min 4 sec) 
Heartbeat CPU 0 instructions: 1020000002 cycles: 527146512 heartbeat IPC: 1.81662 cumulative IPC: 1.79434 (Simulation time: 1 hr 33 min 1 sec) 
Heartbeat CPU 0 instructions: 1030000004 cycles: 532722666 heartbeat IPC: 1.79335 cumulative IPC: 1.79433 (Simulation time: 1 hr 33 min 58 sec) 
Heartbeat CPU 0 instructions: 1040000000 cycles: 538285312 heartbeat IPC: 1.7977 cumulative IPC: 1.79437 (Simulation time: 1 hr 34 min 55 sec) 
Heartbeat CPU 0 instructions: 1050000002 cycles: 543825268 heartbeat IPC: 1.80507 cumulative IPC: 1.79449 (Simulation time: 1 hr 35 min 52 sec) 
Heartbeat CPU 0 instructions: 1060000004 cycles: 549369621 heartbeat IPC: 1.80364 cumulative IPC: 1.7946 (Simulation time: 1 hr 36 min 50 sec) 
Heartbeat CPU 0 instructions: 1070000003 cycles: 554948301 heartbeat IPC: 1.79254 cumulative IPC: 1.79458 (Simulation time: 1 hr 37 min 47 sec) 
Heartbeat CPU 0 instructions: 1080000002 cycles: 560518175 heartbeat IPC: 1.79537 cumulative IPC: 1.79458 (Simulation time: 1 hr 38 min 44 sec) 
Heartbeat CPU 0 instructions: 1090000003 cycles: 566055531 heartbeat IPC: 1.80592 cumulative IPC: 1.79471 (Simulation time: 1 hr 39 min 42 sec) 
Heartbeat CPU 0 instructions: 1100000001 cycles: 571633176 heartbeat IPC: 1.79287 cumulative IPC: 1.79469 (Simulation time: 1 hr 40 min 40 sec) 
Heartbeat CPU 0 instructions: 1110000001 cycles: 577203908 heartbeat IPC: 1.7951 cumulative IPC: 1.79469 (Simulation time: 1 hr 41 min 37 sec) 
Heartbeat CPU 0 instructions: 1120000004 cycles: 582736625 heartbeat IPC: 1.80743 cumulative IPC: 1.79483 (Simulation time: 1 hr 42 min 34 sec) 
Heartbeat CPU 0 instructions: 1130000004 cycles: 588318205 heartbeat IPC: 1.79161 cumulative IPC: 1.7948 (Simulation time: 1 hr 43 min 31 sec) 
Heartbeat CPU 0 instructions: 1140000001 cycles: 593857770 heartbeat IPC: 1.8052 cumulative IPC: 1.79491 (Simulation time: 1 hr 44 min 29 sec) 
Heartbeat CPU 0 instructions: 1150000003 cycles: 599364949 heartbeat IPC: 1.81581 cumulative IPC: 1.79513 (Simulation time: 1 hr 45 min 26 sec) 
Heartbeat CPU 0 instructions: 1160000002 cycles: 604935875 heartbeat IPC: 1.79503 cumulative IPC: 1.79512 (Simulation time: 1 hr 46 min 23 sec) 
Heartbeat CPU 0 instructions: 1170000002 cycles: 610505499 heartbeat IPC: 1.79545 cumulative IPC: 1.79513 (Simulation time: 1 hr 47 min 20 sec) 
Heartbeat CPU 0 instructions: 1180000000 cycles: 616042442 heartbeat IPC: 1.80605 cumulative IPC: 1.79524 (Simulation time: 1 hr 48 min 17 sec) 
Heartbeat CPU 0 instructions: 1190000001 cycles: 621606557 heartbeat IPC: 1.79723 cumulative IPC: 1.79526 (Simulation time: 1 hr 49 min 15 sec) 
Heartbeat CPU 0 instructions: 1200000000 cycles: 627168547 heartbeat IPC: 1.79792 cumulative IPC: 1.79528 (Simulation time: 1 hr 50 min 12 sec) 
Finished CPU 0 instructions: 1000000002 cycles: 557014625 cumulative IPC: 1.79528 (Simulation time: 1 hr 50 min 12 sec) 

ChampSim completed all CPUs

Region of Interest Statistics

CPU 0 cumulative IPC: 1.79528 instructions: 1000000002 cycles: 557014625
cpu0_DTLB TOTAL     ACCESS:  166423440  HIT:  166189836  MISS:     233604
cpu0_DTLB LOAD      ACCESS:  143304894  HIT:  143073494  MISS:     231400
cpu0_DTLB RFO       ACCESS:   23118546  HIT:   23116342  MISS:       2204
cpu0_DTLB PREFETCH  ACCESS:          0  HIT:          0  MISS:          0
cpu0_DTLB WRITEBACK ACCESS:          0  HIT:          0  MISS:          0
cpu0_DTLB TRANSLATION ACCESS:          0  HIT:          0  MISS:          0
cpu0_DTLB PREFETCH  REQUESTED:          0  ISSUED:          0  USEFUL:          0  USELESS:          0
cpu0_DTLB AVERAGE MISS LATENCY: 133.655 cycles
cpu0_ITLB TOTAL     ACCESS:     462121  HIT:     462110  MISS:         11
cpu0_ITLB LOAD      ACCESS:     462121  HIT:     462110  MISS:         11
cpu0_ITLB RFO       ACCESS:          0  HIT:          0  MISS:          0
cpu0_ITLB PREFETCH  ACCESS:          0  HIT:          0  MISS:          0
cpu0_ITLB WRITEBACK ACCESS:          0  HIT:          0  MISS:          0
cpu0_ITLB TRANSLATION ACCESS:          0  HIT:          0  MISS:          0
cpu0_ITLB PREFETCH  REQUESTED:          0  ISSUED:          0  USEFUL:          0  USELESS:          0
cpu0_ITLB AVERAGE MISS LATENCY: 214.545 cycles
cpu0_L1I TOTAL     ACCESS:     394364  HIT:     394087  MISS:        277
cpu0_L1I LOAD      ACCESS:     394364  HIT:     394087  MISS:        277
cpu0_L1I RFO       ACCESS:          0  HIT:          0  MISS:          0
cpu0_L1I PREFETCH  ACCESS:          0  HIT:          0  MISS:          0
cpu0_L1I WRITEBACK ACCESS:          0  HIT:          0  MISS:          0
cpu0_L1I TRANSLATION ACCESS:          0  HIT:          0  MISS:          0
cpu0_L1I PREFETCH  REQUESTED:          0  ISSUED:          0  USEFUL:          0  USELESS:          0
cpu0_L1I AVERAGE MISS LATENCY: 147.877 cycles
cpu0_STLB TOTAL     ACCESS:     233615  HIT:      96831  MISS:     136784
cpu0_STLB LOAD      ACCESS:     231411  HIT:      94627  MISS:     136784
cpu0_STLB RFO       ACCESS:       2204  HIT:       2204  MISS:          0
cpu0_STLB PREFETCH  ACCESS:          0  HIT:          0  MISS:          0
cpu0_STLB WRITEBACK ACCESS:          0  HIT:          0  MISS:          0
cpu0_STLB TRANSLATION ACCESS:          0  HIT:          0  MISS:          0
cpu0_STLB PREFETCH  REQUESTED:          0  ISSUED:          0  USEFUL:          0  USELESS:          0
cpu0_STLB AVERAGE MISS LATENCY: 209.467 cycles
cpu0_L1D TOTAL     ACCESS:  206004519  HIT:  192808703  MISS:   13195816
cpu0_L1D LOAD      ACCESS:  135606519  HIT:  122432612  MISS:   13173907
cpu0_L1D RFO       ACCESS:   70261217  HIT:   70243924  MISS:      17293
cpu0_L1D PREFETCH  ACCESS:          0  HIT:          0  MISS:          0
cpu0_L1D WRITEBACK ACCESS:          0  HIT:          0  MISS:          0
cpu0_L1D TRANSLATION ACCESS:     136783  HIT:     132167  MISS:       4616
cpu0_L1D PREFETCH  REQUESTED:          0  ISSUED:          0  USEFUL:          0  USELESS:          0
cpu0_L1D AVERAGE MISS LATENCY: 62.9069 cycles
cpu0_L2C TOTAL     ACCESS:   55044461  HIT:   45429552  MISS:    9614909
cpu0_L2C LOAD      ACCESS:   13174184  HIT:    7261651  MISS:    5912533
cpu0_L2C RFO       ACCESS:      17293  HIT:      12360  MISS:       4933
cpu0_L2C PREFETCH  ACCESS:   33091723  HIT:   29395587  MISS:    3696136
cpu0_L2C WRITEBACK ACCESS:    8756645  HIT:    8756645  MISS:          0
cpu0_L2C TRANSLATION ACCESS:       4616  HIT:       3309  MISS:       1307
cpu0_L2C PREFETCH  REQUESTED:  132148833  ISSUED:  112303187  USEFUL:    6268280  USELESS:       1380
cpu0_L2C AVERAGE MISS LATENCY: 48.7323 cycles
LLC TOTAL     ACCESS:   46351587  HIT:   37457773  MISS:    8893814
LLC LOAD      ACCESS:    3339010  HIT:    2121146  MISS:    1217864
LLC RFO       ACCESS:       4932  HIT:       4881  MISS:         51
LLC PREFETCH  ACCESS:   34264276  HIT:   26590333  MISS:    7673943
LLC WRITEBACK ACCESS:    8742062  HIT:    8740487  MISS:       1575
LLC TRANSLATION ACCESS:       1307  HIT:        926  MISS:        381
LLC PREFETCH  REQUESTED:          0  ISSUED:          0  USEFUL:          0  USELESS:          0
LLC AVERAGE MISS LATENCY: 464.301 cycles

DRAM Statistics
 CHANNEL 0
 RQ ROW_BUFFER_HIT:    2318585  ROW_BUFFER_MISS:    6573652
 DBUS AVG_CONGESTED_CYCLE:    3.99802
 WQ ROW_BUFFER_HIT:    1775314  ROW_BUFFER_MISS:    6961937  FULL:          0


CPU 0 Branch Prediction Accuracy: 99.8639% MPKI: 0.024533 Average ROB Occupancy at Mispredict: 189.287
Branch type MPKI
BRANCH_DIRECT_JUMP: 8.9e-05
BRANCH_INDIRECT: 0
BRANCH_CONDITIONAL: 0.024412
BRANCH_DIRECT_CALL: 1.6e-05
BRANCH_INDIRECT_CALL: 0
BRANCH_RETURN: 1.6e-05

***************** Done with 649.fotonik3d_s-1176B.champsimtrace.xz using spp-dev, on Thu Apr 14 22:31:03 CDT 2022 ******************
