Started running file 638.imagick_s-10316B.champsimtrace.xz at time Thu Apr 14 17:31:00 CDT 2022 with prefetcher spp-dev

*** ChampSim Multicore Out-of-Order Simulator ***

Warmup Instructions: 200000000
Simulation Instructions: 1000000000
Number of CPUs: 1
Off-chip DRAM Size: 4 GiB Channels: 1 Width: 64-bit Data Rate: 3200 MT/s

VirtualMemory physical capacity: 8588881920 num_ppages: 2096895
VirtualMemory page size: 4096 log2_page_size: 12

CPU 0 runs /home/faculty/p/pgratz/dpc3_traces/638.imagick_s-10316B.champsimtrace.xz
CPU 0 Bimodal branch predictor
Basic BTB sets: 1024 ways: 8 indirect buffer size: 4096 RAS size: 64
SPP-DEV original prefetcher
Heartbeat CPU 0 instructions: 10000002 cycles: 2500064 heartbeat IPC: 3.9999 cumulative IPC: 3.9999 (Simulation time: 0 hr 0 min 26 sec) 
Heartbeat CPU 0 instructions: 20000002 cycles: 5000064 heartbeat IPC: 4 cumulative IPC: 3.99995 (Simulation time: 0 hr 0 min 51 sec) 
Heartbeat CPU 0 instructions: 30000002 cycles: 7500064 heartbeat IPC: 4 cumulative IPC: 3.99997 (Simulation time: 0 hr 1 min 16 sec) 
Heartbeat CPU 0 instructions: 40000002 cycles: 10000064 heartbeat IPC: 4 cumulative IPC: 3.99997 (Simulation time: 0 hr 1 min 41 sec) 
Heartbeat CPU 0 instructions: 50000002 cycles: 12500064 heartbeat IPC: 4 cumulative IPC: 3.99998 (Simulation time: 0 hr 2 min 6 sec) 
Heartbeat CPU 0 instructions: 60000002 cycles: 15000064 heartbeat IPC: 4 cumulative IPC: 3.99998 (Simulation time: 0 hr 2 min 32 sec) 
Heartbeat CPU 0 instructions: 70000002 cycles: 17500064 heartbeat IPC: 4 cumulative IPC: 3.99999 (Simulation time: 0 hr 2 min 57 sec) 
Heartbeat CPU 0 instructions: 80000002 cycles: 20000064 heartbeat IPC: 4 cumulative IPC: 3.99999 (Simulation time: 0 hr 3 min 22 sec) 
Heartbeat CPU 0 instructions: 90000002 cycles: 22500064 heartbeat IPC: 4 cumulative IPC: 3.99999 (Simulation time: 0 hr 3 min 47 sec) 
Heartbeat CPU 0 instructions: 100000002 cycles: 25000064 heartbeat IPC: 4 cumulative IPC: 3.99999 (Simulation time: 0 hr 4 min 12 sec) 
Heartbeat CPU 0 instructions: 110000002 cycles: 27500064 heartbeat IPC: 4 cumulative IPC: 3.99999 (Simulation time: 0 hr 4 min 38 sec) 
Heartbeat CPU 0 instructions: 120000002 cycles: 30000064 heartbeat IPC: 4 cumulative IPC: 3.99999 (Simulation time: 0 hr 5 min 4 sec) 
Heartbeat CPU 0 instructions: 130000002 cycles: 32500064 heartbeat IPC: 4 cumulative IPC: 3.99999 (Simulation time: 0 hr 5 min 29 sec) 
Heartbeat CPU 0 instructions: 140000002 cycles: 35000064 heartbeat IPC: 4 cumulative IPC: 3.99999 (Simulation time: 0 hr 5 min 54 sec) 
Heartbeat CPU 0 instructions: 150000002 cycles: 37500064 heartbeat IPC: 4 cumulative IPC: 3.99999 (Simulation time: 0 hr 6 min 19 sec) 
Heartbeat CPU 0 instructions: 160000002 cycles: 40000064 heartbeat IPC: 4 cumulative IPC: 3.99999 (Simulation time: 0 hr 6 min 46 sec) 
Heartbeat CPU 0 instructions: 170000002 cycles: 42500064 heartbeat IPC: 4 cumulative IPC: 3.99999 (Simulation time: 0 hr 7 min 11 sec) 
Heartbeat CPU 0 instructions: 180000002 cycles: 45000064 heartbeat IPC: 4 cumulative IPC: 3.99999 (Simulation time: 0 hr 7 min 37 sec) 
Heartbeat CPU 0 instructions: 190000002 cycles: 47500064 heartbeat IPC: 4 cumulative IPC: 3.99999 (Simulation time: 0 hr 8 min 2 sec) 
Heartbeat CPU 0 instructions: 200000002 cycles: 50000064 heartbeat IPC: 4 cumulative IPC: 3.99999 (Simulation time: 0 hr 8 min 27 sec) 

Warmup complete CPU 0 instructions: 200000002 cycles: 50000064 (Simulation time: 0 hr 8 min 27 sec) 

Heartbeat CPU 0 instructions: 210000000 cycles: 53421694 heartbeat IPC: 2.92258 cumulative IPC: 2.92258 (Simulation time: 0 hr 8 min 55 sec) 
Heartbeat CPU 0 instructions: 220000004 cycles: 56843696 heartbeat IPC: 2.92227 cumulative IPC: 2.92243 (Simulation time: 0 hr 9 min 22 sec) 
Heartbeat CPU 0 instructions: 230000004 cycles: 60265157 heartbeat IPC: 2.92273 cumulative IPC: 2.92253 (Simulation time: 0 hr 9 min 50 sec) 
Heartbeat CPU 0 instructions: 240000004 cycles: 63687642 heartbeat IPC: 2.92185 cumulative IPC: 2.92236 (Simulation time: 0 hr 10 min 17 sec) 
Heartbeat CPU 0 instructions: 250000000 cycles: 67110312 heartbeat IPC: 2.92169 cumulative IPC: 2.92223 (Simulation time: 0 hr 10 min 45 sec) 
Heartbeat CPU 0 instructions: 260000002 cycles: 70534031 heartbeat IPC: 2.9208 cumulative IPC: 2.92199 (Simulation time: 0 hr 11 min 13 sec) 
Heartbeat CPU 0 instructions: 270000001 cycles: 73954945 heartbeat IPC: 2.9232 cumulative IPC: 2.92216 (Simulation time: 0 hr 11 min 40 sec) 
Heartbeat CPU 0 instructions: 280000002 cycles: 77374313 heartbeat IPC: 2.92452 cumulative IPC: 2.92245 (Simulation time: 0 hr 12 min 8 sec) 
Heartbeat CPU 0 instructions: 290000000 cycles: 80794500 heartbeat IPC: 2.92382 cumulative IPC: 2.92261 (Simulation time: 0 hr 12 min 35 sec) 
Heartbeat CPU 0 instructions: 300000002 cycles: 84213710 heartbeat IPC: 2.92465 cumulative IPC: 2.92281 (Simulation time: 0 hr 13 min 3 sec) 
Heartbeat CPU 0 instructions: 310000000 cycles: 87631803 heartbeat IPC: 2.92561 cumulative IPC: 2.92306 (Simulation time: 0 hr 13 min 30 sec) 
Heartbeat CPU 0 instructions: 320000002 cycles: 91050641 heartbeat IPC: 2.92497 cumulative IPC: 2.92322 (Simulation time: 0 hr 13 min 58 sec) 
Heartbeat CPU 0 instructions: 330000002 cycles: 94469303 heartbeat IPC: 2.92512 cumulative IPC: 2.92337 (Simulation time: 0 hr 14 min 25 sec) 
Heartbeat CPU 0 instructions: 340000002 cycles: 97884590 heartbeat IPC: 2.92801 cumulative IPC: 2.9237 (Simulation time: 0 hr 14 min 53 sec) 
Heartbeat CPU 0 instructions: 350000003 cycles: 101299217 heartbeat IPC: 2.92858 cumulative IPC: 2.92402 (Simulation time: 0 hr 15 min 20 sec) 
Heartbeat CPU 0 instructions: 360000002 cycles: 104714018 heartbeat IPC: 2.92843 cumulative IPC: 2.9243 (Simulation time: 0 hr 15 min 48 sec) 
Heartbeat CPU 0 instructions: 370000003 cycles: 108129250 heartbeat IPC: 2.92806 cumulative IPC: 2.92452 (Simulation time: 0 hr 16 min 15 sec) 
Heartbeat CPU 0 instructions: 380000004 cycles: 111543112 heartbeat IPC: 2.92923 cumulative IPC: 2.92478 (Simulation time: 0 hr 16 min 42 sec) 
Heartbeat CPU 0 instructions: 390000002 cycles: 114958659 heartbeat IPC: 2.92779 cumulative IPC: 2.92494 (Simulation time: 0 hr 17 min 10 sec) 
Heartbeat CPU 0 instructions: 400000001 cycles: 118373134 heartbeat IPC: 2.92871 cumulative IPC: 2.92513 (Simulation time: 0 hr 17 min 37 sec) 
Heartbeat CPU 0 instructions: 410000004 cycles: 121788612 heartbeat IPC: 2.92785 cumulative IPC: 2.92526 (Simulation time: 0 hr 18 min 5 sec) 
Heartbeat CPU 0 instructions: 420000003 cycles: 125202686 heartbeat IPC: 2.92905 cumulative IPC: 2.92543 (Simulation time: 0 hr 18 min 32 sec) 
Heartbeat CPU 0 instructions: 430000001 cycles: 128618878 heartbeat IPC: 2.92724 cumulative IPC: 2.92551 (Simulation time: 0 hr 19 min 0 sec) 
Heartbeat CPU 0 instructions: 440000003 cycles: 132033255 heartbeat IPC: 2.92879 cumulative IPC: 2.92565 (Simulation time: 0 hr 19 min 27 sec) 
Heartbeat CPU 0 instructions: 450000002 cycles: 135449012 heartbeat IPC: 2.92761 cumulative IPC: 2.92572 (Simulation time: 0 hr 19 min 54 sec) 
Heartbeat CPU 0 instructions: 460000000 cycles: 138862687 heartbeat IPC: 2.92939 cumulative IPC: 2.92586 (Simulation time: 0 hr 20 min 22 sec) 
Heartbeat CPU 0 instructions: 470000001 cycles: 142278595 heartbeat IPC: 2.92748 cumulative IPC: 2.92592 (Simulation time: 0 hr 20 min 49 sec) 
Heartbeat CPU 0 instructions: 480000001 cycles: 145692182 heartbeat IPC: 2.92947 cumulative IPC: 2.92605 (Simulation time: 0 hr 21 min 17 sec) 
Heartbeat CPU 0 instructions: 490000004 cycles: 149107885 heartbeat IPC: 2.92766 cumulative IPC: 2.92611 (Simulation time: 0 hr 21 min 44 sec) 
Heartbeat CPU 0 instructions: 500000003 cycles: 152522086 heartbeat IPC: 2.92894 cumulative IPC: 2.9262 (Simulation time: 0 hr 22 min 12 sec) 
Heartbeat CPU 0 instructions: 510000000 cycles: 155938129 heartbeat IPC: 2.92736 cumulative IPC: 2.92624 (Simulation time: 0 hr 22 min 39 sec) 
Heartbeat CPU 0 instructions: 520000000 cycles: 159352425 heartbeat IPC: 2.92886 cumulative IPC: 2.92632 (Simulation time: 0 hr 23 min 7 sec) 
Heartbeat CPU 0 instructions: 530000001 cycles: 162768984 heartbeat IPC: 2.92692 cumulative IPC: 2.92634 (Simulation time: 0 hr 23 min 34 sec) 
Heartbeat CPU 0 instructions: 540000003 cycles: 166183809 heartbeat IPC: 2.92841 cumulative IPC: 2.9264 (Simulation time: 0 hr 24 min 2 sec) 
Heartbeat CPU 0 instructions: 550000002 cycles: 169600191 heartbeat IPC: 2.92707 cumulative IPC: 2.92642 (Simulation time: 0 hr 24 min 29 sec) 
Heartbeat CPU 0 instructions: 560000002 cycles: 173015957 heartbeat IPC: 2.9276 cumulative IPC: 2.92645 (Simulation time: 0 hr 24 min 57 sec) 
Heartbeat CPU 0 instructions: 570000000 cycles: 176433423 heartbeat IPC: 2.92614 cumulative IPC: 2.92644 (Simulation time: 0 hr 25 min 24 sec) 
Heartbeat CPU 0 instructions: 580000000 cycles: 179849218 heartbeat IPC: 2.92758 cumulative IPC: 2.92647 (Simulation time: 0 hr 25 min 52 sec) 
Heartbeat CPU 0 instructions: 590000000 cycles: 183266028 heartbeat IPC: 2.92671 cumulative IPC: 2.92648 (Simulation time: 0 hr 26 min 19 sec) 
Heartbeat CPU 0 instructions: 600000002 cycles: 186682376 heartbeat IPC: 2.9271 cumulative IPC: 2.92649 (Simulation time: 0 hr 26 min 47 sec) 
Heartbeat CPU 0 instructions: 610000001 cycles: 190100081 heartbeat IPC: 2.92594 cumulative IPC: 2.92648 (Simulation time: 0 hr 27 min 14 sec) 
Heartbeat CPU 0 instructions: 620000001 cycles: 193515472 heartbeat IPC: 2.92792 cumulative IPC: 2.92652 (Simulation time: 0 hr 27 min 42 sec) 
Heartbeat CPU 0 instructions: 630000001 cycles: 196932111 heartbeat IPC: 2.92685 cumulative IPC: 2.92652 (Simulation time: 0 hr 28 min 9 sec) 
Heartbeat CPU 0 instructions: 640000001 cycles: 200347895 heartbeat IPC: 2.92759 cumulative IPC: 2.92655 (Simulation time: 0 hr 28 min 37 sec) 
Heartbeat CPU 0 instructions: 650000004 cycles: 203765138 heartbeat IPC: 2.92634 cumulative IPC: 2.92654 (Simulation time: 0 hr 29 min 4 sec) 
Heartbeat CPU 0 instructions: 660000003 cycles: 207181839 heartbeat IPC: 2.9268 cumulative IPC: 2.92655 (Simulation time: 0 hr 29 min 32 sec) 
Heartbeat CPU 0 instructions: 670000004 cycles: 210598867 heartbeat IPC: 2.92652 cumulative IPC: 2.92655 (Simulation time: 0 hr 29 min 59 sec) 
Heartbeat CPU 0 instructions: 680000001 cycles: 214014536 heartbeat IPC: 2.92768 cumulative IPC: 2.92657 (Simulation time: 0 hr 30 min 26 sec) 
Heartbeat CPU 0 instructions: 690000000 cycles: 217431413 heartbeat IPC: 2.92665 cumulative IPC: 2.92657 (Simulation time: 0 hr 30 min 54 sec) 
Heartbeat CPU 0 instructions: 700000004 cycles: 220847759 heartbeat IPC: 2.92711 cumulative IPC: 2.92658 (Simulation time: 0 hr 31 min 21 sec) 
Heartbeat CPU 0 instructions: 710000000 cycles: 224263744 heartbeat IPC: 2.92741 cumulative IPC: 2.9266 (Simulation time: 0 hr 31 min 49 sec) 
Heartbeat CPU 0 instructions: 720000000 cycles: 227678594 heartbeat IPC: 2.92839 cumulative IPC: 2.92663 (Simulation time: 0 hr 32 min 16 sec) 
Heartbeat CPU 0 instructions: 730000000 cycles: 231093092 heartbeat IPC: 2.92869 cumulative IPC: 2.92667 (Simulation time: 0 hr 32 min 43 sec) 
Heartbeat CPU 0 instructions: 740000004 cycles: 234508396 heartbeat IPC: 2.928 cumulative IPC: 2.9267 (Simulation time: 0 hr 33 min 11 sec) 
Heartbeat CPU 0 instructions: 750000004 cycles: 237922434 heartbeat IPC: 2.92908 cumulative IPC: 2.92674 (Simulation time: 0 hr 33 min 38 sec) 
Heartbeat CPU 0 instructions: 760000003 cycles: 241337732 heartbeat IPC: 2.928 cumulative IPC: 2.92676 (Simulation time: 0 hr 34 min 6 sec) 
Heartbeat CPU 0 instructions: 770000003 cycles: 244753202 heartbeat IPC: 2.92785 cumulative IPC: 2.92678 (Simulation time: 0 hr 34 min 33 sec) 
Heartbeat CPU 0 instructions: 780000002 cycles: 248169006 heartbeat IPC: 2.92757 cumulative IPC: 2.9268 (Simulation time: 0 hr 35 min 0 sec) 
Heartbeat CPU 0 instructions: 790000002 cycles: 251584060 heartbeat IPC: 2.92821 cumulative IPC: 2.92682 (Simulation time: 0 hr 35 min 28 sec) 
Heartbeat CPU 0 instructions: 800000001 cycles: 254999736 heartbeat IPC: 2.92768 cumulative IPC: 2.92683 (Simulation time: 0 hr 35 min 55 sec) 
Heartbeat CPU 0 instructions: 810000004 cycles: 258413925 heartbeat IPC: 2.92895 cumulative IPC: 2.92687 (Simulation time: 0 hr 36 min 23 sec) 
Heartbeat CPU 0 instructions: 820000003 cycles: 261829702 heartbeat IPC: 2.92759 cumulative IPC: 2.92688 (Simulation time: 0 hr 36 min 50 sec) 
Heartbeat CPU 0 instructions: 830000001 cycles: 265242965 heartbeat IPC: 2.92975 cumulative IPC: 2.92693 (Simulation time: 0 hr 37 min 17 sec) 
Heartbeat CPU 0 instructions: 840000003 cycles: 268659120 heartbeat IPC: 2.92727 cumulative IPC: 2.92693 (Simulation time: 0 hr 37 min 45 sec) 
Heartbeat CPU 0 instructions: 850000004 cycles: 272072884 heartbeat IPC: 2.92932 cumulative IPC: 2.92697 (Simulation time: 0 hr 38 min 12 sec) 
Heartbeat CPU 0 instructions: 860000003 cycles: 275488380 heartbeat IPC: 2.92783 cumulative IPC: 2.92698 (Simulation time: 0 hr 38 min 40 sec) 
Heartbeat CPU 0 instructions: 870000003 cycles: 278902306 heartbeat IPC: 2.92918 cumulative IPC: 2.92701 (Simulation time: 0 hr 39 min 7 sec) 
Heartbeat CPU 0 instructions: 880000003 cycles: 282318066 heartbeat IPC: 2.92761 cumulative IPC: 2.92702 (Simulation time: 0 hr 39 min 35 sec) 
Heartbeat CPU 0 instructions: 890000002 cycles: 285732344 heartbeat IPC: 2.92888 cumulative IPC: 2.92705 (Simulation time: 0 hr 40 min 2 sec) 
Heartbeat CPU 0 instructions: 900000001 cycles: 289147838 heartbeat IPC: 2.92783 cumulative IPC: 2.92706 (Simulation time: 0 hr 40 min 29 sec) 
Heartbeat CPU 0 instructions: 910000000 cycles: 292562415 heartbeat IPC: 2.92862 cumulative IPC: 2.92708 (Simulation time: 0 hr 40 min 57 sec) 
Heartbeat CPU 0 instructions: 920000004 cycles: 295977756 heartbeat IPC: 2.92797 cumulative IPC: 2.92709 (Simulation time: 0 hr 41 min 24 sec) 
Heartbeat CPU 0 instructions: 930000000 cycles: 299391019 heartbeat IPC: 2.92975 cumulative IPC: 2.92713 (Simulation time: 0 hr 41 min 52 sec) 
Heartbeat CPU 0 instructions: 940000004 cycles: 302806496 heartbeat IPC: 2.92785 cumulative IPC: 2.92714 (Simulation time: 0 hr 42 min 19 sec) 
Heartbeat CPU 0 instructions: 950000004 cycles: 306220794 heartbeat IPC: 2.92886 cumulative IPC: 2.92716 (Simulation time: 0 hr 42 min 46 sec) 
Heartbeat CPU 0 instructions: 960000003 cycles: 309635867 heartbeat IPC: 2.92819 cumulative IPC: 2.92718 (Simulation time: 0 hr 43 min 14 sec) 
Heartbeat CPU 0 instructions: 970000000 cycles: 313049667 heartbeat IPC: 2.92929 cumulative IPC: 2.9272 (Simulation time: 0 hr 43 min 41 sec) 
Heartbeat CPU 0 instructions: 980000004 cycles: 316465290 heartbeat IPC: 2.92772 cumulative IPC: 2.92721 (Simulation time: 0 hr 44 min 9 sec) 
Heartbeat CPU 0 instructions: 990000002 cycles: 319878800 heartbeat IPC: 2.92954 cumulative IPC: 2.92724 (Simulation time: 0 hr 44 min 36 sec) 
Heartbeat CPU 0 instructions: 1000000001 cycles: 323293525 heartbeat IPC: 2.92849 cumulative IPC: 2.92726 (Simulation time: 0 hr 45 min 3 sec) 
Heartbeat CPU 0 instructions: 1010000003 cycles: 326707792 heartbeat IPC: 2.92889 cumulative IPC: 2.92728 (Simulation time: 0 hr 45 min 31 sec) 
Heartbeat CPU 0 instructions: 1020000003 cycles: 330123144 heartbeat IPC: 2.92796 cumulative IPC: 2.92728 (Simulation time: 0 hr 45 min 58 sec) 
Heartbeat CPU 0 instructions: 1030000001 cycles: 333536534 heartbeat IPC: 2.92964 cumulative IPC: 2.92731 (Simulation time: 0 hr 46 min 26 sec) 
Heartbeat CPU 0 instructions: 1040000001 cycles: 336951818 heartbeat IPC: 2.92801 cumulative IPC: 2.92732 (Simulation time: 0 hr 46 min 53 sec) 
Heartbeat CPU 0 instructions: 1050000004 cycles: 340366120 heartbeat IPC: 2.92886 cumulative IPC: 2.92734 (Simulation time: 0 hr 47 min 20 sec) 
Heartbeat CPU 0 instructions: 1060000004 cycles: 343781348 heartbeat IPC: 2.92806 cumulative IPC: 2.92735 (Simulation time: 0 hr 47 min 48 sec) 
Heartbeat CPU 0 instructions: 1070000000 cycles: 347195548 heartbeat IPC: 2.92894 cumulative IPC: 2.92737 (Simulation time: 0 hr 48 min 15 sec) 
Heartbeat CPU 0 instructions: 1080000004 cycles: 350610179 heartbeat IPC: 2.92858 cumulative IPC: 2.92738 (Simulation time: 0 hr 48 min 43 sec) 
Heartbeat CPU 0 instructions: 1090000004 cycles: 354024260 heartbeat IPC: 2.92905 cumulative IPC: 2.9274 (Simulation time: 0 hr 49 min 10 sec) 
Heartbeat CPU 0 instructions: 1100000001 cycles: 357438257 heartbeat IPC: 2.92912 cumulative IPC: 2.92742 (Simulation time: 0 hr 49 min 38 sec) 
Heartbeat CPU 0 instructions: 1110000003 cycles: 360853371 heartbeat IPC: 2.92816 cumulative IPC: 2.92743 (Simulation time: 0 hr 50 min 5 sec) 
Heartbeat CPU 0 instructions: 1120000000 cycles: 364268340 heartbeat IPC: 2.92828 cumulative IPC: 2.92744 (Simulation time: 0 hr 50 min 32 sec) 
Heartbeat CPU 0 instructions: 1130000004 cycles: 367683505 heartbeat IPC: 2.92812 cumulative IPC: 2.92744 (Simulation time: 0 hr 51 min 0 sec) 
Heartbeat CPU 0 instructions: 1140000001 cycles: 371098654 heartbeat IPC: 2.92813 cumulative IPC: 2.92745 (Simulation time: 0 hr 51 min 27 sec) 
Heartbeat CPU 0 instructions: 1150000003 cycles: 374514250 heartbeat IPC: 2.92775 cumulative IPC: 2.92745 (Simulation time: 0 hr 51 min 55 sec) 
Heartbeat CPU 0 instructions: 1160000000 cycles: 377928383 heartbeat IPC: 2.929 cumulative IPC: 2.92747 (Simulation time: 0 hr 52 min 22 sec) 
Heartbeat CPU 0 instructions: 1170000004 cycles: 381343352 heartbeat IPC: 2.92829 cumulative IPC: 2.92748 (Simulation time: 0 hr 52 min 49 sec) 
Heartbeat CPU 0 instructions: 1180000000 cycles: 384758068 heartbeat IPC: 2.9285 cumulative IPC: 2.92749 (Simulation time: 0 hr 53 min 17 sec) 
Heartbeat CPU 0 instructions: 1190000004 cycles: 388174505 heartbeat IPC: 2.92703 cumulative IPC: 2.92748 (Simulation time: 0 hr 53 min 45 sec) 
Heartbeat CPU 0 instructions: 1200000001 cycles: 391588283 heartbeat IPC: 2.92931 cumulative IPC: 2.9275 (Simulation time: 0 hr 54 min 12 sec) 
Finished CPU 0 instructions: 1000000004 cycles: 341588220 cumulative IPC: 2.9275 (Simulation time: 0 hr 54 min 12 sec) 

ChampSim completed all CPUs

Region of Interest Statistics

CPU 0 cumulative IPC: 2.9275 instructions: 1000000004 cycles: 341588220
cpu0_DTLB TOTAL     ACCESS:   83998985  HIT:   83535170  MISS:     463815
cpu0_DTLB LOAD      ACCESS:   83976281  HIT:   83518047  MISS:     458234
cpu0_DTLB RFO       ACCESS:      22704  HIT:      17123  MISS:       5581
cpu0_DTLB PREFETCH  ACCESS:          0  HIT:          0  MISS:          0
cpu0_DTLB WRITEBACK ACCESS:          0  HIT:          0  MISS:          0
cpu0_DTLB TRANSLATION ACCESS:          0  HIT:          0  MISS:          0
cpu0_DTLB PREFETCH  REQUESTED:          0  ISSUED:          0  USEFUL:          0  USELESS:          0
cpu0_DTLB AVERAGE MISS LATENCY: 11.3006 cycles
cpu0_ITLB TOTAL     ACCESS:   28291071  HIT:   28291071  MISS:          0
cpu0_ITLB LOAD      ACCESS:   28291071  HIT:   28291071  MISS:          0
cpu0_ITLB RFO       ACCESS:          0  HIT:          0  MISS:          0
cpu0_ITLB PREFETCH  ACCESS:          0  HIT:          0  MISS:          0
cpu0_ITLB WRITEBACK ACCESS:          0  HIT:          0  MISS:          0
cpu0_ITLB TRANSLATION ACCESS:          0  HIT:          0  MISS:          0
cpu0_ITLB PREFETCH  REQUESTED:          0  ISSUED:          0  USEFUL:          0  USELESS:          0
cpu0_ITLB AVERAGE MISS LATENCY: -nan cycles
cpu0_STLB TOTAL     ACCESS:     463815  HIT:     463204  MISS:        611
cpu0_STLB LOAD      ACCESS:     458234  HIT:     457629  MISS:        605
cpu0_STLB RFO       ACCESS:       5581  HIT:       5575  MISS:          6
cpu0_STLB PREFETCH  ACCESS:          0  HIT:          0  MISS:          0
cpu0_STLB WRITEBACK ACCESS:          0  HIT:          0  MISS:          0
cpu0_STLB TRANSLATION ACCESS:          0  HIT:          0  MISS:          0
cpu0_STLB PREFETCH  REQUESTED:          0  ISSUED:          0  USEFUL:          0  USELESS:          0
cpu0_STLB AVERAGE MISS LATENCY: 219.206 cycles
cpu0_L1D TOTAL     ACCESS:   35744599  HIT:   26844319  MISS:    8900280
cpu0_L1D LOAD      ACCESS:   35699494  HIT:   26805754  MISS:    8893740
cpu0_L1D RFO       ACCESS:      44494  HIT:      38565  MISS:       5929
cpu0_L1D PREFETCH  ACCESS:          0  HIT:          0  MISS:          0
cpu0_L1D WRITEBACK ACCESS:          0  HIT:          0  MISS:          0
cpu0_L1D TRANSLATION ACCESS:        611  HIT:          0  MISS:        611
cpu0_L1D PREFETCH  REQUESTED:          0  ISSUED:          0  USEFUL:          0  USELESS:          0
cpu0_L1D AVERAGE MISS LATENCY: 11.1233 cycles
cpu0_L2C TOTAL     ACCESS:   55155151  HIT:   55078906  MISS:      76245
cpu0_L2C LOAD      ACCESS:    8893740  HIT:    8869208  MISS:      24532
cpu0_L2C RFO       ACCESS:       5929  HIT:       5580  MISS:        349
cpu0_L2C PREFETCH  ACCESS:   46240577  HIT:   46189219  MISS:      51358
cpu0_L2C WRITEBACK ACCESS:      14294  HIT:      14294  MISS:          0
cpu0_L2C TRANSLATION ACCESS:        611  HIT:        605  MISS:          6
cpu0_L2C PREFETCH  REQUESTED:   54665334  ISSUED:   53804069  USEFUL:      50226  USELESS:       1510
cpu0_L2C AVERAGE MISS LATENCY: 22.9557 cycles
LLC TOTAL     ACCESS:    7634300  HIT:    7595080  MISS:      39220
LLC LOAD      ACCESS:      24157  HIT:      23514  MISS:        643
LLC RFO       ACCESS:        349  HIT:          0  MISS:        349
LLC PREFETCH  ACCESS:    7609380  HIT:    7571152  MISS:      38228
LLC WRITEBACK ACCESS:        408  HIT:        408  MISS:          0
LLC TRANSLATION ACCESS:          6  HIT:          6  MISS:          0
LLC PREFETCH  REQUESTED:          0  ISSUED:          0  USEFUL:          0  USELESS:          0
LLC AVERAGE MISS LATENCY: 166.422 cycles

DRAM Statistics
 CHANNEL 0
 RQ ROW_BUFFER_HIT:         17  ROW_BUFFER_MISS:      39203
 DBUS AVG_CONGESTED_CYCLE:    3.97438
 WQ ROW_BUFFER_HIT:          0  ROW_BUFFER_MISS:        128  FULL:          0


CPU 0 Branch Prediction Accuracy: 99.396% MPKI: 0.625173 Average ROB Occupancy at Mispredict: 187.937
Branch type MPKI
BRANCH_DIRECT_JUMP: 1e-06
BRANCH_INDIRECT: 0
BRANCH_CONDITIONAL: 0.625172
BRANCH_DIRECT_CALL: 0
BRANCH_INDIRECT_CALL: 0
BRANCH_RETURN: 0

***************** Done with 638.imagick_s-10316B.champsimtrace.xz using spp-dev, on Thu Apr 14 18:25:12 CDT 2022 ******************
