Started running file 621.wrf_s-575B.champsimtrace.xz at time Thu Apr 14 19:50:16 CDT 2022 with prefetcher spp-dev

*** ChampSim Multicore Out-of-Order Simulator ***

Warmup Instructions: 200000000
Simulation Instructions: 1000000000
Number of CPUs: 1
Off-chip DRAM Size: 4 GiB Channels: 1 Width: 64-bit Data Rate: 3200 MT/s

VirtualMemory physical capacity: 8588881920 num_ppages: 2096895
VirtualMemory page size: 4096 log2_page_size: 12

CPU 0 runs /home/faculty/p/pgratz/dpc3_traces/621.wrf_s-575B.champsimtrace.xz
CPU 0 Bimodal branch predictor
Basic BTB sets: 1024 ways: 8 indirect buffer size: 4096 RAS size: 64
SPP-DEV original prefetcher
Heartbeat CPU 0 instructions: 10000000 cycles: 2501558 heartbeat IPC: 3.99751 cumulative IPC: 3.99751 (Simulation time: 0 hr 0 min 28 sec) 
Heartbeat CPU 0 instructions: 20000002 cycles: 5002995 heartbeat IPC: 3.9977 cumulative IPC: 3.99761 (Simulation time: 0 hr 0 min 56 sec) 
Heartbeat CPU 0 instructions: 30000002 cycles: 7504428 heartbeat IPC: 3.99771 cumulative IPC: 3.99764 (Simulation time: 0 hr 1 min 24 sec) 
Heartbeat CPU 0 instructions: 40000003 cycles: 10005858 heartbeat IPC: 3.99771 cumulative IPC: 3.99766 (Simulation time: 0 hr 1 min 52 sec) 
Heartbeat CPU 0 instructions: 50000002 cycles: 12507290 heartbeat IPC: 3.99771 cumulative IPC: 3.99767 (Simulation time: 0 hr 2 min 20 sec) 
Heartbeat CPU 0 instructions: 60000002 cycles: 15008714 heartbeat IPC: 3.99772 cumulative IPC: 3.99768 (Simulation time: 0 hr 2 min 48 sec) 
Heartbeat CPU 0 instructions: 70000003 cycles: 17511551 heartbeat IPC: 3.99547 cumulative IPC: 3.99736 (Simulation time: 0 hr 3 min 16 sec) 
Heartbeat CPU 0 instructions: 80000000 cycles: 20012964 heartbeat IPC: 3.99774 cumulative IPC: 3.99741 (Simulation time: 0 hr 3 min 44 sec) 
Heartbeat CPU 0 instructions: 90000002 cycles: 22514376 heartbeat IPC: 3.99774 cumulative IPC: 3.99745 (Simulation time: 0 hr 4 min 12 sec) 
Heartbeat CPU 0 instructions: 100000003 cycles: 25015780 heartbeat IPC: 3.99776 cumulative IPC: 3.99748 (Simulation time: 0 hr 4 min 40 sec) 
Heartbeat CPU 0 instructions: 110000002 cycles: 27517181 heartbeat IPC: 3.99776 cumulative IPC: 3.9975 (Simulation time: 0 hr 5 min 8 sec) 
Heartbeat CPU 0 instructions: 120000002 cycles: 30018584 heartbeat IPC: 3.99776 cumulative IPC: 3.99752 (Simulation time: 0 hr 5 min 36 sec) 
Heartbeat CPU 0 instructions: 130000000 cycles: 32519983 heartbeat IPC: 3.99776 cumulative IPC: 3.99754 (Simulation time: 0 hr 6 min 4 sec) 
Heartbeat CPU 0 instructions: 140000003 cycles: 35022785 heartbeat IPC: 3.99552 cumulative IPC: 3.9974 (Simulation time: 0 hr 6 min 31 sec) 
Heartbeat CPU 0 instructions: 150000003 cycles: 37524187 heartbeat IPC: 3.99776 cumulative IPC: 3.99742 (Simulation time: 0 hr 6 min 59 sec) 
Heartbeat CPU 0 instructions: 160000000 cycles: 40025591 heartbeat IPC: 3.99775 cumulative IPC: 3.99744 (Simulation time: 0 hr 7 min 26 sec) 
Heartbeat CPU 0 instructions: 170000000 cycles: 42526997 heartbeat IPC: 3.99775 cumulative IPC: 3.99746 (Simulation time: 0 hr 7 min 53 sec) 
Heartbeat CPU 0 instructions: 180000001 cycles: 45028407 heartbeat IPC: 3.99775 cumulative IPC: 3.99748 (Simulation time: 0 hr 8 min 21 sec) 
Heartbeat CPU 0 instructions: 190000000 cycles: 47529817 heartbeat IPC: 3.99774 cumulative IPC: 3.99749 (Simulation time: 0 hr 8 min 48 sec) 
Heartbeat CPU 0 instructions: 200000000 cycles: 50032648 heartbeat IPC: 3.99548 cumulative IPC: 3.99739 (Simulation time: 0 hr 9 min 16 sec) 

Warmup complete CPU 0 instructions: 200000004 cycles: 50032649 (Simulation time: 0 hr 9 min 16 sec) 

Heartbeat CPU 0 instructions: 210000000 cycles: 59580477 heartbeat IPC: 1.04736 cumulative IPC: 1.04736 (Simulation time: 0 hr 9 min 52 sec) 
Heartbeat CPU 0 instructions: 220000001 cycles: 69095053 heartbeat IPC: 1.05102 cumulative IPC: 1.04919 (Simulation time: 0 hr 10 min 29 sec) 
Heartbeat CPU 0 instructions: 230000002 cycles: 78675031 heartbeat IPC: 1.04384 cumulative IPC: 1.0474 (Simulation time: 0 hr 11 min 6 sec) 
Heartbeat CPU 0 instructions: 240000003 cycles: 88323708 heartbeat IPC: 1.03641 cumulative IPC: 1.04463 (Simulation time: 0 hr 11 min 43 sec) 
Heartbeat CPU 0 instructions: 250000003 cycles: 97993429 heartbeat IPC: 1.03416 cumulative IPC: 1.04252 (Simulation time: 0 hr 12 min 20 sec) 
Heartbeat CPU 0 instructions: 260000000 cycles: 107651417 heartbeat IPC: 1.03541 cumulative IPC: 1.04133 (Simulation time: 0 hr 12 min 57 sec) 
Heartbeat CPU 0 instructions: 270000002 cycles: 117303889 heartbeat IPC: 1.036 cumulative IPC: 1.04056 (Simulation time: 0 hr 13 min 34 sec) 
Heartbeat CPU 0 instructions: 280000002 cycles: 126946045 heartbeat IPC: 1.03711 cumulative IPC: 1.04013 (Simulation time: 0 hr 14 min 11 sec) 
Heartbeat CPU 0 instructions: 290000000 cycles: 136640254 heartbeat IPC: 1.03154 cumulative IPC: 1.03917 (Simulation time: 0 hr 14 min 48 sec) 
Heartbeat CPU 0 instructions: 300000001 cycles: 146314743 heartbeat IPC: 1.03365 cumulative IPC: 1.03861 (Simulation time: 0 hr 15 min 26 sec) 
Heartbeat CPU 0 instructions: 310000003 cycles: 155915501 heartbeat IPC: 1.04158 cumulative IPC: 1.03888 (Simulation time: 0 hr 16 min 3 sec) 
Heartbeat CPU 0 instructions: 320000002 cycles: 165669971 heartbeat IPC: 1.02517 cumulative IPC: 1.03773 (Simulation time: 0 hr 16 min 40 sec) 
Heartbeat CPU 0 instructions: 330000002 cycles: 175355492 heartbeat IPC: 1.03247 cumulative IPC: 1.03732 (Simulation time: 0 hr 17 min 17 sec) 
Heartbeat CPU 0 instructions: 340000001 cycles: 183116988 heartbeat IPC: 1.28841 cumulative IPC: 1.05196 (Simulation time: 0 hr 18 min 2 sec) 
Heartbeat CPU 0 instructions: 350000001 cycles: 190641079 heartbeat IPC: 1.32906 cumulative IPC: 1.06679 (Simulation time: 0 hr 18 min 43 sec) 
Heartbeat CPU 0 instructions: 360000001 cycles: 198403117 heartbeat IPC: 1.28832 cumulative IPC: 1.07838 (Simulation time: 0 hr 19 min 23 sec) 
Heartbeat CPU 0 instructions: 370000002 cycles: 206174226 heartbeat IPC: 1.28682 cumulative IPC: 1.08876 (Simulation time: 0 hr 20 min 3 sec) 
Heartbeat CPU 0 instructions: 380000000 cycles: 213999946 heartbeat IPC: 1.27784 cumulative IPC: 1.09778 (Simulation time: 0 hr 20 min 44 sec) 
Heartbeat CPU 0 instructions: 390000000 cycles: 232373656 heartbeat IPC: 0.544256 cumulative IPC: 1.042 (Simulation time: 0 hr 22 min 42 sec) 
Heartbeat CPU 0 instructions: 400000000 cycles: 238120385 heartbeat IPC: 1.74012 cumulative IPC: 1.06333 (Simulation time: 0 hr 23 min 28 sec) 
Heartbeat CPU 0 instructions: 410000002 cycles: 243710037 heartbeat IPC: 1.78902 cumulative IPC: 1.08428 (Simulation time: 0 hr 24 min 13 sec) 
Heartbeat CPU 0 instructions: 420000001 cycles: 249104840 heartbeat IPC: 1.85364 cumulative IPC: 1.10513 (Simulation time: 0 hr 24 min 58 sec) 
Heartbeat CPU 0 instructions: 430000000 cycles: 254589738 heartbeat IPC: 1.82319 cumulative IPC: 1.12438 (Simulation time: 0 hr 25 min 42 sec) 
Heartbeat CPU 0 instructions: 440000000 cycles: 260101277 heartbeat IPC: 1.81438 cumulative IPC: 1.14248 (Simulation time: 0 hr 26 min 27 sec) 
Heartbeat CPU 0 instructions: 450000001 cycles: 265578925 heartbeat IPC: 1.8256 cumulative IPC: 1.15984 (Simulation time: 0 hr 27 min 11 sec) 
Heartbeat CPU 0 instructions: 460000001 cycles: 270976937 heartbeat IPC: 1.85253 cumulative IPC: 1.17677 (Simulation time: 0 hr 27 min 55 sec) 
Heartbeat CPU 0 instructions: 470000003 cycles: 276152352 heartbeat IPC: 1.93221 cumulative IPC: 1.19406 (Simulation time: 0 hr 28 min 40 sec) 
Heartbeat CPU 0 instructions: 480000001 cycles: 281551656 heartbeat IPC: 1.85209 cumulative IPC: 1.2094 (Simulation time: 0 hr 29 min 24 sec) 
Heartbeat CPU 0 instructions: 490000002 cycles: 288097875 heartbeat IPC: 1.5276 cumulative IPC: 1.21815 (Simulation time: 0 hr 30 min 15 sec) 
Heartbeat CPU 0 instructions: 500000001 cycles: 294732154 heartbeat IPC: 1.50732 cumulative IPC: 1.22599 (Simulation time: 0 hr 31 min 7 sec) 
Heartbeat CPU 0 instructions: 510000002 cycles: 301388179 heartbeat IPC: 1.5024 cumulative IPC: 1.23331 (Simulation time: 0 hr 31 min 59 sec) 
Heartbeat CPU 0 instructions: 520000001 cycles: 307907630 heartbeat IPC: 1.53387 cumulative IPC: 1.24091 (Simulation time: 0 hr 32 min 51 sec) 
Heartbeat CPU 0 instructions: 530000000 cycles: 314705191 heartbeat IPC: 1.47112 cumulative IPC: 1.24682 (Simulation time: 0 hr 33 min 42 sec) 
Heartbeat CPU 0 instructions: 540000002 cycles: 321522545 heartbeat IPC: 1.46685 cumulative IPC: 1.25235 (Simulation time: 0 hr 34 min 34 sec) 
Heartbeat CPU 0 instructions: 550000003 cycles: 328328261 heartbeat IPC: 1.46935 cumulative IPC: 1.25766 (Simulation time: 0 hr 35 min 25 sec) 
Heartbeat CPU 0 instructions: 560000000 cycles: 334908876 heartbeat IPC: 1.51961 cumulative IPC: 1.26371 (Simulation time: 0 hr 36 min 17 sec) 
Heartbeat CPU 0 instructions: 570000004 cycles: 341585747 heartbeat IPC: 1.49771 cumulative IPC: 1.26907 (Simulation time: 0 hr 37 min 8 sec) 
Heartbeat CPU 0 instructions: 580000002 cycles: 348315395 heartbeat IPC: 1.48596 cumulative IPC: 1.27396 (Simulation time: 0 hr 38 min 0 sec) 
Heartbeat CPU 0 instructions: 590000000 cycles: 355096563 heartbeat IPC: 1.47467 cumulative IPC: 1.27842 (Simulation time: 0 hr 38 min 52 sec) 
Heartbeat CPU 0 instructions: 600000001 cycles: 361855707 heartbeat IPC: 1.47948 cumulative IPC: 1.28278 (Simulation time: 0 hr 39 min 42 sec) 
Heartbeat CPU 0 instructions: 610000003 cycles: 368458677 heartbeat IPC: 1.51447 cumulative IPC: 1.28758 (Simulation time: 0 hr 40 min 34 sec) 
Heartbeat CPU 0 instructions: 620000001 cycles: 381698995 heartbeat IPC: 0.755269 cumulative IPC: 1.26633 (Simulation time: 0 hr 42 min 4 sec) 
Heartbeat CPU 0 instructions: 630000004 cycles: 394716992 heartbeat IPC: 0.768168 cumulative IPC: 1.24752 (Simulation time: 0 hr 43 min 26 sec) 
Heartbeat CPU 0 instructions: 640000004 cycles: 406403270 heartbeat IPC: 0.855704 cumulative IPC: 1.23467 (Simulation time: 0 hr 44 min 44 sec) 
Heartbeat CPU 0 instructions: 650000001 cycles: 420431530 heartbeat IPC: 0.712847 cumulative IPC: 1.21491 (Simulation time: 0 hr 46 min 12 sec) 
Heartbeat CPU 0 instructions: 660000001 cycles: 433105565 heartbeat IPC: 0.789015 cumulative IPC: 1.20082 (Simulation time: 0 hr 47 min 26 sec) 
Heartbeat CPU 0 instructions: 670000002 cycles: 441176716 heartbeat IPC: 1.23898 cumulative IPC: 1.2016 (Simulation time: 0 hr 48 min 31 sec) 
Heartbeat CPU 0 instructions: 680000001 cycles: 463652237 heartbeat IPC: 0.444928 cumulative IPC: 1.16049 (Simulation time: 0 hr 50 min 48 sec) 
Heartbeat CPU 0 instructions: 690000004 cycles: 467857910 heartbeat IPC: 2.37774 cumulative IPC: 1.17274 (Simulation time: 0 hr 51 min 39 sec) 
Heartbeat CPU 0 instructions: 700000002 cycles: 472401819 heartbeat IPC: 2.20075 cumulative IPC: 1.1838 (Simulation time: 0 hr 52 min 34 sec) 
Heartbeat CPU 0 instructions: 710000000 cycles: 476702492 heartbeat IPC: 2.32522 cumulative IPC: 1.1953 (Simulation time: 0 hr 53 min 24 sec) 
Heartbeat CPU 0 instructions: 720000003 cycles: 480798865 heartbeat IPC: 2.44118 cumulative IPC: 1.20715 (Simulation time: 0 hr 54 min 9 sec) 
Heartbeat CPU 0 instructions: 730000004 cycles: 485231384 heartbeat IPC: 2.25605 cumulative IPC: 1.21783 (Simulation time: 0 hr 54 min 57 sec) 
Heartbeat CPU 0 instructions: 740000004 cycles: 490448181 heartbeat IPC: 1.91689 cumulative IPC: 1.22611 (Simulation time: 0 hr 55 min 47 sec) 
Heartbeat CPU 0 instructions: 750000004 cycles: 500755069 heartbeat IPC: 0.970225 cumulative IPC: 1.22026 (Simulation time: 0 hr 57 min 6 sec) 
Heartbeat CPU 0 instructions: 760000000 cycles: 510069531 heartbeat IPC: 1.0736 cumulative IPC: 1.21729 (Simulation time: 0 hr 58 min 19 sec) 
Heartbeat CPU 0 instructions: 770000003 cycles: 518254409 heartbeat IPC: 1.22177 cumulative IPC: 1.21737 (Simulation time: 0 hr 59 min 24 sec) 
Heartbeat CPU 0 instructions: 780000003 cycles: 523216945 heartbeat IPC: 2.0151 cumulative IPC: 1.22574 (Simulation time: 1 hr 0 min 15 sec) 
Heartbeat CPU 0 instructions: 790000003 cycles: 527324004 heartbeat IPC: 2.43483 cumulative IPC: 1.23614 (Simulation time: 1 hr 1 min 1 sec) 
Heartbeat CPU 0 instructions: 800000003 cycles: 536661374 heartbeat IPC: 1.07097 cumulative IPC: 1.23297 (Simulation time: 1 hr 2 min 15 sec) 
Heartbeat CPU 0 instructions: 810000000 cycles: 546652041 heartbeat IPC: 1.00093 cumulative IPC: 1.2283 (Simulation time: 1 hr 3 min 41 sec) 
Heartbeat CPU 0 instructions: 820000003 cycles: 573013812 heartbeat IPC: 0.379337 cumulative IPC: 1.18551 (Simulation time: 1 hr 5 min 55 sec) 
Heartbeat CPU 0 instructions: 830000003 cycles: 584250901 heartbeat IPC: 0.88991 cumulative IPC: 1.17929 (Simulation time: 1 hr 7 min 14 sec) 
Heartbeat CPU 0 instructions: 840000000 cycles: 594250681 heartbeat IPC: 1.00002 cumulative IPC: 1.176 (Simulation time: 1 hr 8 min 32 sec) 
Heartbeat CPU 0 instructions: 850000004 cycles: 614671346 heartbeat IPC: 0.4897 cumulative IPC: 1.15118 (Simulation time: 1 hr 10 min 37 sec) 
Heartbeat CPU 0 instructions: 860000000 cycles: 626799468 heartbeat IPC: 0.82453 cumulative IPC: 1.14431 (Simulation time: 1 hr 12 min 2 sec) 
Heartbeat CPU 0 instructions: 870000004 cycles: 630788044 heartbeat IPC: 2.50716 cumulative IPC: 1.15367 (Simulation time: 1 hr 12 min 45 sec) 
Heartbeat CPU 0 instructions: 880000002 cycles: 638564432 heartbeat IPC: 1.28594 cumulative IPC: 1.15542 (Simulation time: 1 hr 13 min 47 sec) 
Heartbeat CPU 0 instructions: 890000001 cycles: 642653760 heartbeat IPC: 2.44539 cumulative IPC: 1.16432 (Simulation time: 1 hr 14 min 30 sec) 
Heartbeat CPU 0 instructions: 900000001 cycles: 649851362 heartbeat IPC: 1.38935 cumulative IPC: 1.16702 (Simulation time: 1 hr 15 min 30 sec) 
Heartbeat CPU 0 instructions: 910000003 cycles: 654013892 heartbeat IPC: 2.40239 cumulative IPC: 1.17553 (Simulation time: 1 hr 16 min 14 sec) 
Heartbeat CPU 0 instructions: 920000004 cycles: 661126067 heartbeat IPC: 1.40604 cumulative IPC: 1.17822 (Simulation time: 1 hr 17 min 13 sec) 
Heartbeat CPU 0 instructions: 930000000 cycles: 665460013 heartbeat IPC: 2.30737 cumulative IPC: 1.18617 (Simulation time: 1 hr 17 min 58 sec) 
Heartbeat CPU 0 instructions: 940000003 cycles: 672387275 heartbeat IPC: 1.44357 cumulative IPC: 1.18903 (Simulation time: 1 hr 18 min 56 sec) 
Heartbeat CPU 0 instructions: 950000000 cycles: 676715255 heartbeat IPC: 2.31055 cumulative IPC: 1.19678 (Simulation time: 1 hr 19 min 40 sec) 
Heartbeat CPU 0 instructions: 960000001 cycles: 683967725 heartbeat IPC: 1.37884 cumulative IPC: 1.19886 (Simulation time: 1 hr 20 min 38 sec) 
Heartbeat CPU 0 instructions: 970000002 cycles: 692433131 heartbeat IPC: 1.18128 cumulative IPC: 1.19863 (Simulation time: 1 hr 21 min 28 sec) 
Heartbeat CPU 0 instructions: 980000001 cycles: 700952239 heartbeat IPC: 1.17383 cumulative IPC: 1.1983 (Simulation time: 1 hr 22 min 18 sec) 
Heartbeat CPU 0 instructions: 990000001 cycles: 709497814 heartbeat IPC: 1.1702 cumulative IPC: 1.19794 (Simulation time: 1 hr 23 min 9 sec) 
Heartbeat CPU 0 instructions: 1000000003 cycles: 721925580 heartbeat IPC: 0.80465 cumulative IPC: 1.19067 (Simulation time: 1 hr 24 min 25 sec) 
Heartbeat CPU 0 instructions: 1010000003 cycles: 739585533 heartbeat IPC: 0.566253 cumulative IPC: 1.17467 (Simulation time: 1 hr 26 min 9 sec) 
Heartbeat CPU 0 instructions: 1020000003 cycles: 744335929 heartbeat IPC: 2.10509 cumulative IPC: 1.18104 (Simulation time: 1 hr 27 min 3 sec) 
Heartbeat CPU 0 instructions: 1030000004 cycles: 748806218 heartbeat IPC: 2.23699 cumulative IPC: 1.1878 (Simulation time: 1 hr 27 min 56 sec) 
Heartbeat CPU 0 instructions: 1040000004 cycles: 752949231 heartbeat IPC: 2.4137 cumulative IPC: 1.19502 (Simulation time: 1 hr 28 min 47 sec) 
Heartbeat CPU 0 instructions: 1050000003 cycles: 757348741 heartbeat IPC: 2.27298 cumulative IPC: 1.20173 (Simulation time: 1 hr 29 min 34 sec) 
Heartbeat CPU 0 instructions: 1060000003 cycles: 761595238 heartbeat IPC: 2.35488 cumulative IPC: 1.20861 (Simulation time: 1 hr 30 min 22 sec) 
Heartbeat CPU 0 instructions: 1070000001 cycles: 765729347 heartbeat IPC: 2.4189 cumulative IPC: 1.2156 (Simulation time: 1 hr 31 min 6 sec) 
Heartbeat CPU 0 instructions: 1080000000 cycles: 773786253 heartbeat IPC: 1.24117 cumulative IPC: 1.21588 (Simulation time: 1 hr 32 min 13 sec) 
Heartbeat CPU 0 instructions: 1090000003 cycles: 784632114 heartbeat IPC: 0.922011 cumulative IPC: 1.21154 (Simulation time: 1 hr 33 min 32 sec) 
Heartbeat CPU 0 instructions: 1100000001 cycles: 791942116 heartbeat IPC: 1.36799 cumulative IPC: 1.21309 (Simulation time: 1 hr 34 min 34 sec) 
Heartbeat CPU 0 instructions: 1110000002 cycles: 800165020 heartbeat IPC: 1.21612 cumulative IPC: 1.21312 (Simulation time: 1 hr 35 min 39 sec) 
Heartbeat CPU 0 instructions: 1120000004 cycles: 811922187 heartbeat IPC: 0.850545 cumulative IPC: 1.20752 (Simulation time: 1 hr 37 min 1 sec) 
Heartbeat CPU 0 instructions: 1130000001 cycles: 831588578 heartbeat IPC: 0.508482 cumulative IPC: 1.18993 (Simulation time: 1 hr 38 min 54 sec) 
Heartbeat CPU 0 instructions: 1140000002 cycles: 839887064 heartbeat IPC: 1.20504 cumulative IPC: 1.19009 (Simulation time: 1 hr 40 min 2 sec) 
Heartbeat CPU 0 instructions: 1150000002 cycles: 849926758 heartbeat IPC: 0.996046 cumulative IPC: 1.18766 (Simulation time: 1 hr 41 min 19 sec) 
Heartbeat CPU 0 instructions: 1160000003 cycles: 867782639 heartbeat IPC: 0.56004 cumulative IPC: 1.17395 (Simulation time: 1 hr 43 min 9 sec) 
Heartbeat CPU 0 instructions: 1170000003 cycles: 877627203 heartbeat IPC: 1.01579 cumulative IPC: 1.17207 (Simulation time: 1 hr 44 min 25 sec) 
Heartbeat CPU 0 instructions: 1180000001 cycles: 894647342 heartbeat IPC: 0.587539 cumulative IPC: 1.16029 (Simulation time: 1 hr 46 min 15 sec) 
Heartbeat CPU 0 instructions: 1190000001 cycles: 909322412 heartbeat IPC: 0.681428 cumulative IPC: 1.15211 (Simulation time: 1 hr 47 min 53 sec) 
Heartbeat CPU 0 instructions: 1200000000 cycles: 913471021 heartbeat IPC: 2.41045 cumulative IPC: 1.15816 (Simulation time: 1 hr 48 min 35 sec) 
Finished CPU 0 instructions: 1000000001 cycles: 863438373 cumulative IPC: 1.15816 (Simulation time: 1 hr 48 min 35 sec) 

ChampSim completed all CPUs

Region of Interest Statistics

CPU 0 cumulative IPC: 1.15816 instructions: 1000000001 cycles: 863438373
cpu0_DTLB TOTAL     ACCESS:  225060910  HIT:  223956144  MISS:    1104766
cpu0_DTLB LOAD      ACCESS:  187733611  HIT:  186945809  MISS:     787802
cpu0_DTLB RFO       ACCESS:   37327299  HIT:   37010335  MISS:     316964
cpu0_DTLB PREFETCH  ACCESS:          0  HIT:          0  MISS:          0
cpu0_DTLB WRITEBACK ACCESS:          0  HIT:          0  MISS:          0
cpu0_DTLB TRANSLATION ACCESS:          0  HIT:          0  MISS:          0
cpu0_DTLB PREFETCH  REQUESTED:          0  ISSUED:          0  USEFUL:          0  USELESS:          0
cpu0_DTLB AVERAGE MISS LATENCY: 19.0495 cycles
cpu0_ITLB TOTAL     ACCESS:   50725818  HIT:   50725096  MISS:        722
cpu0_ITLB LOAD      ACCESS:   50725818  HIT:   50725096  MISS:        722
cpu0_ITLB RFO       ACCESS:          0  HIT:          0  MISS:          0
cpu0_ITLB PREFETCH  ACCESS:          0  HIT:          0  MISS:          0
cpu0_ITLB WRITEBACK ACCESS:          0  HIT:          0  MISS:          0
cpu0_ITLB TRANSLATION ACCESS:          0  HIT:          0  MISS:          0
cpu0_ITLB PREFETCH  REQUESTED:          0  ISSUED:          0  USEFUL:          0  USELESS:          0
cpu0_ITLB AVERAGE MISS LATENCY: 260.518 cycles
cpu0_L1I TOTAL     ACCESS:   30903067  HIT:   30342278  MISS:     560789
cpu0_L1I LOAD      ACCESS:   30903067  HIT:   30342278  MISS:     560789
cpu0_L1I RFO       ACCESS:          0  HIT:          0  MISS:          0
cpu0_L1I PREFETCH  ACCESS:          0  HIT:          0  MISS:          0
cpu0_L1I WRITEBACK ACCESS:          0  HIT:          0  MISS:          0
cpu0_L1I TRANSLATION ACCESS:          0  HIT:          0  MISS:          0
cpu0_L1I PREFETCH  REQUESTED:          0  ISSUED:          0  USEFUL:          0  USELESS:          0
cpu0_L1I AVERAGE MISS LATENCY: 19.7809 cycles
cpu0_STLB TOTAL     ACCESS:    1105488  HIT:    1075859  MISS:      29629
cpu0_STLB LOAD      ACCESS:     788524  HIT:     772736  MISS:      15788
cpu0_STLB RFO       ACCESS:     316964  HIT:     303123  MISS:      13841
cpu0_STLB PREFETCH  ACCESS:          0  HIT:          0  MISS:          0
cpu0_STLB WRITEBACK ACCESS:          0  HIT:          0  MISS:          0
cpu0_STLB TRANSLATION ACCESS:          0  HIT:          0  MISS:          0
cpu0_STLB PREFETCH  REQUESTED:          0  ISSUED:          0  USEFUL:          0  USELESS:          0
cpu0_STLB AVERAGE MISS LATENCY: 299.551 cycles
cpu0_L1D TOTAL     ACCESS:  235032090  HIT:  219932555  MISS:   15099535
cpu0_L1D LOAD      ACCESS:  174663085  HIT:  163331037  MISS:   11332048
cpu0_L1D RFO       ACCESS:   60341744  HIT:   56577495  MISS:    3764249
cpu0_L1D PREFETCH  ACCESS:          0  HIT:          0  MISS:          0
cpu0_L1D WRITEBACK ACCESS:          0  HIT:          0  MISS:          0
cpu0_L1D TRANSLATION ACCESS:      27261  HIT:      24023  MISS:       3238
cpu0_L1D PREFETCH  REQUESTED:          0  ISSUED:          0  USEFUL:          0  USELESS:          0
cpu0_L1D AVERAGE MISS LATENCY: 223.35 cycles
cpu0_L2C TOTAL     ACCESS:   35789372  HIT:   26680635  MISS:    9108737
cpu0_L2C LOAD      ACCESS:   11891903  HIT:    6867214  MISS:    5024689
cpu0_L2C RFO       ACCESS:    3763856  HIT:    1935532  MISS:    1828324
cpu0_L2C PREFETCH  ACCESS:   13796493  HIT:   11546669  MISS:    2249824
cpu0_L2C WRITEBACK ACCESS:    6333882  HIT:    6328781  MISS:       5101
cpu0_L2C TRANSLATION ACCESS:       3238  HIT:       2439  MISS:        799
cpu0_L2C PREFETCH  REQUESTED:   79477535  ISSUED:   49834060  USEFUL:    3490537  USELESS:      29269
cpu0_L2C AVERAGE MISS LATENCY: 322.292 cycles
LLC TOTAL     ACCESS:   34440123  HIT:   26476434  MISS:    7963689
LLC LOAD      ACCESS:    3754776  HIT:    2464078  MISS:    1290698
LLC RFO       ACCESS:    1828308  HIT:     204100  MISS:    1624208
LLC PREFETCH  ACCESS:   25002479  HIT:   19964438  MISS:    5038041
LLC WRITEBACK ACCESS:    3853761  HIT:    3843410  MISS:      10351
LLC TRANSLATION ACCESS:        799  HIT:        408  MISS:        391
LLC PREFETCH  REQUESTED:          0  ISSUED:          0  USEFUL:          0  USELESS:          0
LLC AVERAGE MISS LATENCY: 866.043 cycles

DRAM Statistics
 CHANNEL 0
 RQ ROW_BUFFER_HIT:    1337834  ROW_BUFFER_MISS:    6612133
 DBUS AVG_CONGESTED_CYCLE:     3.9865
 WQ ROW_BUFFER_HIT:     338845  ROW_BUFFER_MISS:    2907082  FULL:        255


CPU 0 Branch Prediction Accuracy: 95.7887% MPKI: 3.74292 Average ROB Occupancy at Mispredict: 173.514
Branch type MPKI
BRANCH_DIRECT_JUMP: 0.00039
BRANCH_INDIRECT: 1.7e-05
BRANCH_CONDITIONAL: 3.73927
BRANCH_DIRECT_CALL: 0.002478
BRANCH_INDIRECT_CALL: 0
BRANCH_RETURN: 0.000763

***************** Done with 621.wrf_s-575B.champsimtrace.xz using spp-dev, on Thu Apr 14 21:38:51 CDT 2022 ******************
