Started running file 603.bwaves_s-3699B.champsimtrace.xz at time Thu Apr 14 16:44:31 CDT 2022 with prefetcher spp-dev

*** ChampSim Multicore Out-of-Order Simulator ***

Warmup Instructions: 200000000
Simulation Instructions: 1000000000
Number of CPUs: 1
Off-chip DRAM Size: 4 GiB Channels: 1 Width: 64-bit Data Rate: 3200 MT/s

VirtualMemory physical capacity: 8588881920 num_ppages: 2096895
VirtualMemory page size: 4096 log2_page_size: 12

CPU 0 runs /home/faculty/p/pgratz/dpc3_traces/603.bwaves_s-3699B.champsimtrace.xz
CPU 0 Bimodal branch predictor
Basic BTB sets: 1024 ways: 8 indirect buffer size: 4096 RAS size: 64
SPP-DEV original prefetcher
Heartbeat CPU 0 instructions: 10000000 cycles: 2685176 heartbeat IPC: 3.72415 cumulative IPC: 3.72415 (Simulation time: 0 hr 0 min 31 sec) 
Heartbeat CPU 0 instructions: 20000002 cycles: 5318729 heartbeat IPC: 3.79715 cumulative IPC: 3.7603 (Simulation time: 0 hr 1 min 2 sec) 
Heartbeat CPU 0 instructions: 30000003 cycles: 7940286 heartbeat IPC: 3.81453 cumulative IPC: 3.7782 (Simulation time: 0 hr 1 min 33 sec) 
Heartbeat CPU 0 instructions: 40000003 cycles: 10625409 heartbeat IPC: 3.72422 cumulative IPC: 3.76456 (Simulation time: 0 hr 2 min 4 sec) 
Heartbeat CPU 0 instructions: 50000002 cycles: 13309261 heartbeat IPC: 3.72599 cumulative IPC: 3.75678 (Simulation time: 0 hr 2 min 34 sec) 
Heartbeat CPU 0 instructions: 60000004 cycles: 15989480 heartbeat IPC: 3.73104 cumulative IPC: 3.75247 (Simulation time: 0 hr 3 min 5 sec) 
Heartbeat CPU 0 instructions: 70000000 cycles: 18666391 heartbeat IPC: 3.73565 cumulative IPC: 3.75006 (Simulation time: 0 hr 3 min 35 sec) 
Heartbeat CPU 0 instructions: 80000004 cycles: 21342374 heartbeat IPC: 3.73695 cumulative IPC: 3.74841 (Simulation time: 0 hr 4 min 6 sec) 
Heartbeat CPU 0 instructions: 90000001 cycles: 24020486 heartbeat IPC: 3.73397 cumulative IPC: 3.7468 (Simulation time: 0 hr 4 min 36 sec) 
Heartbeat CPU 0 instructions: 100000001 cycles: 26682891 heartbeat IPC: 3.756 cumulative IPC: 3.74772 (Simulation time: 0 hr 5 min 7 sec) 
Heartbeat CPU 0 instructions: 110000002 cycles: 29347080 heartbeat IPC: 3.75349 cumulative IPC: 3.74824 (Simulation time: 0 hr 5 min 37 sec) 
Heartbeat CPU 0 instructions: 120000002 cycles: 32009021 heartbeat IPC: 3.75666 cumulative IPC: 3.74894 (Simulation time: 0 hr 6 min 7 sec) 
Heartbeat CPU 0 instructions: 130000000 cycles: 34661405 heartbeat IPC: 3.77019 cumulative IPC: 3.75057 (Simulation time: 0 hr 6 min 37 sec) 
Heartbeat CPU 0 instructions: 140000000 cycles: 37292418 heartbeat IPC: 3.80082 cumulative IPC: 3.75411 (Simulation time: 0 hr 7 min 7 sec) 
Heartbeat CPU 0 instructions: 150000004 cycles: 39945242 heartbeat IPC: 3.76957 cumulative IPC: 3.75514 (Simulation time: 0 hr 7 min 37 sec) 
Heartbeat CPU 0 instructions: 160000001 cycles: 42603594 heartbeat IPC: 3.76173 cumulative IPC: 3.75555 (Simulation time: 0 hr 8 min 7 sec) 
Heartbeat CPU 0 instructions: 170000002 cycles: 45238929 heartbeat IPC: 3.79458 cumulative IPC: 3.75783 (Simulation time: 0 hr 8 min 37 sec) 
Heartbeat CPU 0 instructions: 180000003 cycles: 47874305 heartbeat IPC: 3.79453 cumulative IPC: 3.75985 (Simulation time: 0 hr 9 min 7 sec) 
Heartbeat CPU 0 instructions: 190000003 cycles: 50516477 heartbeat IPC: 3.78477 cumulative IPC: 3.76115 (Simulation time: 0 hr 9 min 37 sec) 
Heartbeat CPU 0 instructions: 200000000 cycles: 53183763 heartbeat IPC: 3.74913 cumulative IPC: 3.76055 (Simulation time: 0 hr 10 min 7 sec) 

Warmup complete CPU 0 instructions: 200000005 cycles: 53183764 (Simulation time: 0 hr 10 min 7 sec) 

Heartbeat CPU 0 instructions: 210000000 cycles: 59318140 heartbeat IPC: 1.63016 cumulative IPC: 1.63016 (Simulation time: 0 hr 10 min 34 sec) 
Heartbeat CPU 0 instructions: 220000003 cycles: 65531981 heartbeat IPC: 1.60931 cumulative IPC: 1.61967 (Simulation time: 0 hr 11 min 1 sec) 
Heartbeat CPU 0 instructions: 230000001 cycles: 71646838 heartbeat IPC: 1.63536 cumulative IPC: 1.62486 (Simulation time: 0 hr 11 min 28 sec) 
Heartbeat CPU 0 instructions: 240000000 cycles: 77789353 heartbeat IPC: 1.628 cumulative IPC: 1.62565 (Simulation time: 0 hr 11 min 55 sec) 
Heartbeat CPU 0 instructions: 250000001 cycles: 83847818 heartbeat IPC: 1.65058 cumulative IPC: 1.63057 (Simulation time: 0 hr 12 min 22 sec) 
Heartbeat CPU 0 instructions: 260000000 cycles: 89951706 heartbeat IPC: 1.6383 cumulative IPC: 1.63186 (Simulation time: 0 hr 12 min 48 sec) 
Heartbeat CPU 0 instructions: 270000000 cycles: 96098399 heartbeat IPC: 1.62689 cumulative IPC: 1.63115 (Simulation time: 0 hr 13 min 15 sec) 
Heartbeat CPU 0 instructions: 280000003 cycles: 102111873 heartbeat IPC: 1.66293 cumulative IPC: 1.63505 (Simulation time: 0 hr 13 min 42 sec) 
Heartbeat CPU 0 instructions: 290000002 cycles: 108224596 heartbeat IPC: 1.63593 cumulative IPC: 1.63515 (Simulation time: 0 hr 14 min 9 sec) 
Heartbeat CPU 0 instructions: 300000000 cycles: 114364338 heartbeat IPC: 1.62873 cumulative IPC: 1.63451 (Simulation time: 0 hr 14 min 35 sec) 
Heartbeat CPU 0 instructions: 310000001 cycles: 120384835 heartbeat IPC: 1.66099 cumulative IPC: 1.63688 (Simulation time: 0 hr 15 min 2 sec) 
Heartbeat CPU 0 instructions: 320000003 cycles: 126537401 heartbeat IPC: 1.62534 cumulative IPC: 1.63591 (Simulation time: 0 hr 15 min 29 sec) 
Heartbeat CPU 0 instructions: 330000003 cycles: 132715087 heartbeat IPC: 1.61873 cumulative IPC: 1.63458 (Simulation time: 0 hr 15 min 55 sec) 
Heartbeat CPU 0 instructions: 340000000 cycles: 138903171 heartbeat IPC: 1.61601 cumulative IPC: 1.63324 (Simulation time: 0 hr 16 min 22 sec) 
Heartbeat CPU 0 instructions: 350000002 cycles: 145037256 heartbeat IPC: 1.63024 cumulative IPC: 1.63304 (Simulation time: 0 hr 16 min 49 sec) 
Heartbeat CPU 0 instructions: 360000000 cycles: 151271039 heartbeat IPC: 1.60416 cumulative IPC: 1.6312 (Simulation time: 0 hr 17 min 16 sec) 
Heartbeat CPU 0 instructions: 370000001 cycles: 157306865 heartbeat IPC: 1.65677 cumulative IPC: 1.63268 (Simulation time: 0 hr 17 min 43 sec) 
Heartbeat CPU 0 instructions: 380000000 cycles: 163589315 heartbeat IPC: 1.59174 cumulative IPC: 1.63035 (Simulation time: 0 hr 18 min 10 sec) 
Heartbeat CPU 0 instructions: 390000004 cycles: 169717420 heartbeat IPC: 1.63183 cumulative IPC: 1.63043 (Simulation time: 0 hr 18 min 36 sec) 
Heartbeat CPU 0 instructions: 400000001 cycles: 176044689 heartbeat IPC: 1.58046 cumulative IPC: 1.62786 (Simulation time: 0 hr 19 min 3 sec) 
Heartbeat CPU 0 instructions: 410000001 cycles: 182270286 heartbeat IPC: 1.60627 cumulative IPC: 1.62682 (Simulation time: 0 hr 19 min 30 sec) 
Heartbeat CPU 0 instructions: 420000000 cycles: 188442743 heartbeat IPC: 1.6201 cumulative IPC: 1.62651 (Simulation time: 0 hr 19 min 56 sec) 
Heartbeat CPU 0 instructions: 430000000 cycles: 194613601 heartbeat IPC: 1.62052 cumulative IPC: 1.62625 (Simulation time: 0 hr 20 min 23 sec) 
Heartbeat CPU 0 instructions: 440000003 cycles: 200864692 heartbeat IPC: 1.59972 cumulative IPC: 1.62513 (Simulation time: 0 hr 20 min 49 sec) 
Heartbeat CPU 0 instructions: 450000004 cycles: 206915150 heartbeat IPC: 1.65277 cumulative IPC: 1.62621 (Simulation time: 0 hr 21 min 16 sec) 
Heartbeat CPU 0 instructions: 460000002 cycles: 212965700 heartbeat IPC: 1.65274 cumulative IPC: 1.62722 (Simulation time: 0 hr 21 min 43 sec) 
Heartbeat CPU 0 instructions: 470000003 cycles: 218898802 heartbeat IPC: 1.68546 cumulative IPC: 1.6293 (Simulation time: 0 hr 22 min 9 sec) 
Heartbeat CPU 0 instructions: 480000001 cycles: 224887158 heartbeat IPC: 1.66991 cumulative IPC: 1.63072 (Simulation time: 0 hr 22 min 35 sec) 
Heartbeat CPU 0 instructions: 490000003 cycles: 230824654 heartbeat IPC: 1.68421 cumulative IPC: 1.63251 (Simulation time: 0 hr 23 min 1 sec) 
Heartbeat CPU 0 instructions: 500000000 cycles: 236759015 heartbeat IPC: 1.6851 cumulative IPC: 1.63421 (Simulation time: 0 hr 23 min 28 sec) 
Heartbeat CPU 0 instructions: 510000003 cycles: 242690745 heartbeat IPC: 1.68585 cumulative IPC: 1.63582 (Simulation time: 0 hr 23 min 54 sec) 
Heartbeat CPU 0 instructions: 520000001 cycles: 248636094 heartbeat IPC: 1.68199 cumulative IPC: 1.63723 (Simulation time: 0 hr 24 min 20 sec) 
Heartbeat CPU 0 instructions: 530000000 cycles: 254794542 heartbeat IPC: 1.62379 cumulative IPC: 1.63682 (Simulation time: 0 hr 24 min 59 sec) 
Heartbeat CPU 0 instructions: 540000000 cycles: 260829533 heartbeat IPC: 1.657 cumulative IPC: 1.6374 (Simulation time: 0 hr 25 min 34 sec) 
Heartbeat CPU 0 instructions: 550000000 cycles: 266762515 heartbeat IPC: 1.68549 cumulative IPC: 1.63874 (Simulation time: 0 hr 26 min 1 sec) 
Heartbeat CPU 0 instructions: 560000003 cycles: 272704746 heartbeat IPC: 1.68287 cumulative IPC: 1.63993 (Simulation time: 0 hr 26 min 27 sec) 
Heartbeat CPU 0 instructions: 570000000 cycles: 278639244 heartbeat IPC: 1.68506 cumulative IPC: 1.64112 (Simulation time: 0 hr 26 min 54 sec) 
Heartbeat CPU 0 instructions: 580000002 cycles: 284559347 heartbeat IPC: 1.68916 cumulative IPC: 1.64235 (Simulation time: 0 hr 27 min 20 sec) 
Heartbeat CPU 0 instructions: 590000000 cycles: 290497453 heartbeat IPC: 1.68404 cumulative IPC: 1.64339 (Simulation time: 0 hr 27 min 46 sec) 
Heartbeat CPU 0 instructions: 600000001 cycles: 296435423 heartbeat IPC: 1.68408 cumulative IPC: 1.64439 (Simulation time: 0 hr 28 min 12 sec) 
Heartbeat CPU 0 instructions: 610000000 cycles: 302360201 heartbeat IPC: 1.68783 cumulative IPC: 1.64542 (Simulation time: 0 hr 28 min 39 sec) 
Heartbeat CPU 0 instructions: 620000004 cycles: 308308284 heartbeat IPC: 1.68121 cumulative IPC: 1.64625 (Simulation time: 0 hr 29 min 5 sec) 
Heartbeat CPU 0 instructions: 630000000 cycles: 314251415 heartbeat IPC: 1.68261 cumulative IPC: 1.64708 (Simulation time: 0 hr 29 min 32 sec) 
Heartbeat CPU 0 instructions: 640000000 cycles: 320196710 heartbeat IPC: 1.682 cumulative IPC: 1.64786 (Simulation time: 0 hr 29 min 58 sec) 
Heartbeat CPU 0 instructions: 650000000 cycles: 326132536 heartbeat IPC: 1.68469 cumulative IPC: 1.64866 (Simulation time: 0 hr 30 min 24 sec) 
Heartbeat CPU 0 instructions: 660000003 cycles: 332181105 heartbeat IPC: 1.65328 cumulative IPC: 1.64876 (Simulation time: 0 hr 30 min 51 sec) 
Heartbeat CPU 0 instructions: 670000002 cycles: 338345364 heartbeat IPC: 1.62225 cumulative IPC: 1.64819 (Simulation time: 0 hr 31 min 17 sec) 
Heartbeat CPU 0 instructions: 680000000 cycles: 344575033 heartbeat IPC: 1.60522 cumulative IPC: 1.64727 (Simulation time: 0 hr 31 min 44 sec) 
Heartbeat CPU 0 instructions: 690000000 cycles: 350746103 heartbeat IPC: 1.62046 cumulative IPC: 1.64671 (Simulation time: 0 hr 32 min 11 sec) 
Heartbeat CPU 0 instructions: 700000001 cycles: 356841429 heartbeat IPC: 1.6406 cumulative IPC: 1.64659 (Simulation time: 0 hr 32 min 37 sec) 
Heartbeat CPU 0 instructions: 710000000 cycles: 363078629 heartbeat IPC: 1.60328 cumulative IPC: 1.64572 (Simulation time: 0 hr 33 min 4 sec) 
Heartbeat CPU 0 instructions: 720000000 cycles: 369476472 heartbeat IPC: 1.56303 cumulative IPC: 1.64405 (Simulation time: 0 hr 33 min 31 sec) 
Heartbeat CPU 0 instructions: 730000003 cycles: 375742533 heartbeat IPC: 1.5959 cumulative IPC: 1.64311 (Simulation time: 0 hr 33 min 57 sec) 
Heartbeat CPU 0 instructions: 740000001 cycles: 381886939 heartbeat IPC: 1.6275 cumulative IPC: 1.64282 (Simulation time: 0 hr 34 min 24 sec) 
Heartbeat CPU 0 instructions: 750000002 cycles: 388147563 heartbeat IPC: 1.59729 cumulative IPC: 1.64197 (Simulation time: 0 hr 34 min 51 sec) 
Heartbeat CPU 0 instructions: 760000000 cycles: 394305686 heartbeat IPC: 1.62387 cumulative IPC: 1.64164 (Simulation time: 0 hr 35 min 18 sec) 
Heartbeat CPU 0 instructions: 770000000 cycles: 400351101 heartbeat IPC: 1.65415 cumulative IPC: 1.64186 (Simulation time: 0 hr 35 min 45 sec) 
Heartbeat CPU 0 instructions: 780000003 cycles: 406488746 heartbeat IPC: 1.62929 cumulative IPC: 1.64164 (Simulation time: 0 hr 36 min 11 sec) 
Heartbeat CPU 0 instructions: 790000000 cycles: 412511847 heartbeat IPC: 1.66027 cumulative IPC: 1.64195 (Simulation time: 0 hr 36 min 38 sec) 
Heartbeat CPU 0 instructions: 800000003 cycles: 418635984 heartbeat IPC: 1.63288 cumulative IPC: 1.6418 (Simulation time: 0 hr 37 min 5 sec) 
Heartbeat CPU 0 instructions: 810000001 cycles: 424751103 heartbeat IPC: 1.63529 cumulative IPC: 1.64169 (Simulation time: 0 hr 37 min 31 sec) 
Heartbeat CPU 0 instructions: 820000001 cycles: 430856713 heartbeat IPC: 1.63784 cumulative IPC: 1.64163 (Simulation time: 0 hr 37 min 58 sec) 
Heartbeat CPU 0 instructions: 830000000 cycles: 436881161 heartbeat IPC: 1.6599 cumulative IPC: 1.64192 (Simulation time: 0 hr 38 min 25 sec) 
Heartbeat CPU 0 instructions: 840000004 cycles: 443010418 heartbeat IPC: 1.63152 cumulative IPC: 1.64176 (Simulation time: 0 hr 38 min 51 sec) 
Heartbeat CPU 0 instructions: 850000002 cycles: 449026850 heartbeat IPC: 1.66211 cumulative IPC: 1.64206 (Simulation time: 0 hr 39 min 18 sec) 
Heartbeat CPU 0 instructions: 860000004 cycles: 455158225 heartbeat IPC: 1.63096 cumulative IPC: 1.6419 (Simulation time: 0 hr 39 min 45 sec) 
Heartbeat CPU 0 instructions: 870000000 cycles: 461183576 heartbeat IPC: 1.65965 cumulative IPC: 1.64216 (Simulation time: 0 hr 40 min 11 sec) 
Heartbeat CPU 0 instructions: 880000000 cycles: 467353664 heartbeat IPC: 1.62072 cumulative IPC: 1.64184 (Simulation time: 0 hr 40 min 39 sec) 
Heartbeat CPU 0 instructions: 890000002 cycles: 473381065 heartbeat IPC: 1.65909 cumulative IPC: 1.64209 (Simulation time: 0 hr 41 min 5 sec) 
Heartbeat CPU 0 instructions: 900000001 cycles: 479515104 heartbeat IPC: 1.63025 cumulative IPC: 1.64192 (Simulation time: 0 hr 41 min 32 sec) 
Heartbeat CPU 0 instructions: 910000000 cycles: 485693067 heartbeat IPC: 1.61866 cumulative IPC: 1.64158 (Simulation time: 0 hr 41 min 59 sec) 
Heartbeat CPU 0 instructions: 920000002 cycles: 491739645 heartbeat IPC: 1.65383 cumulative IPC: 1.64175 (Simulation time: 0 hr 42 min 25 sec) 
Heartbeat CPU 0 instructions: 930000002 cycles: 497775347 heartbeat IPC: 1.65681 cumulative IPC: 1.64196 (Simulation time: 0 hr 42 min 52 sec) 
Heartbeat CPU 0 instructions: 940000003 cycles: 503965008 heartbeat IPC: 1.6156 cumulative IPC: 1.64159 (Simulation time: 0 hr 43 min 19 sec) 
Heartbeat CPU 0 instructions: 950000002 cycles: 510264968 heartbeat IPC: 1.58731 cumulative IPC: 1.64085 (Simulation time: 0 hr 43 min 46 sec) 
Heartbeat CPU 0 instructions: 960000000 cycles: 516429496 heartbeat IPC: 1.62218 cumulative IPC: 1.6406 (Simulation time: 0 hr 44 min 12 sec) 
Heartbeat CPU 0 instructions: 970000002 cycles: 522624401 heartbeat IPC: 1.61423 cumulative IPC: 1.64025 (Simulation time: 0 hr 44 min 39 sec) 
Heartbeat CPU 0 instructions: 980000003 cycles: 529094526 heartbeat IPC: 1.54557 cumulative IPC: 1.63896 (Simulation time: 0 hr 45 min 6 sec) 
Heartbeat CPU 0 instructions: 990000002 cycles: 535224363 heartbeat IPC: 1.63136 cumulative IPC: 1.63887 (Simulation time: 0 hr 45 min 32 sec) 
Heartbeat CPU 0 instructions: 1000000000 cycles: 541474147 heartbeat IPC: 1.60005 cumulative IPC: 1.63837 (Simulation time: 0 hr 45 min 59 sec) 
Heartbeat CPU 0 instructions: 1010000000 cycles: 547633362 heartbeat IPC: 1.62358 cumulative IPC: 1.63819 (Simulation time: 0 hr 46 min 26 sec) 
Heartbeat CPU 0 instructions: 1020000003 cycles: 553656209 heartbeat IPC: 1.66034 cumulative IPC: 1.63845 (Simulation time: 0 hr 46 min 52 sec) 
Heartbeat CPU 0 instructions: 1030000002 cycles: 559723957 heartbeat IPC: 1.64806 cumulative IPC: 1.63857 (Simulation time: 0 hr 47 min 19 sec) 
Heartbeat CPU 0 instructions: 1040000002 cycles: 565719637 heartbeat IPC: 1.66787 cumulative IPC: 1.63891 (Simulation time: 0 hr 47 min 45 sec) 
Heartbeat CPU 0 instructions: 1050000002 cycles: 571650155 heartbeat IPC: 1.68619 cumulative IPC: 1.63945 (Simulation time: 0 hr 48 min 11 sec) 
Heartbeat CPU 0 instructions: 1060000000 cycles: 577610895 heartbeat IPC: 1.67764 cumulative IPC: 1.63988 (Simulation time: 0 hr 48 min 38 sec) 
Heartbeat CPU 0 instructions: 1070000001 cycles: 583544816 heartbeat IPC: 1.68523 cumulative IPC: 1.64039 (Simulation time: 0 hr 49 min 4 sec) 
Heartbeat CPU 0 instructions: 1080000002 cycles: 589464353 heartbeat IPC: 1.68932 cumulative IPC: 1.64093 (Simulation time: 0 hr 49 min 30 sec) 
Heartbeat CPU 0 instructions: 1090000004 cycles: 595398432 heartbeat IPC: 1.68518 cumulative IPC: 1.64142 (Simulation time: 0 hr 49 min 57 sec) 
Heartbeat CPU 0 instructions: 1100000002 cycles: 601345357 heartbeat IPC: 1.68154 cumulative IPC: 1.64185 (Simulation time: 0 hr 50 min 23 sec) 
Heartbeat CPU 0 instructions: 1110000004 cycles: 607265377 heartbeat IPC: 1.68918 cumulative IPC: 1.64236 (Simulation time: 0 hr 50 min 49 sec) 
Heartbeat CPU 0 instructions: 1120000000 cycles: 613198595 heartbeat IPC: 1.68543 cumulative IPC: 1.64281 (Simulation time: 0 hr 51 min 16 sec) 
Heartbeat CPU 0 instructions: 1130000001 cycles: 619141325 heartbeat IPC: 1.68273 cumulative IPC: 1.64323 (Simulation time: 0 hr 51 min 42 sec) 
Heartbeat CPU 0 instructions: 1140000003 cycles: 624985042 heartbeat IPC: 1.71124 cumulative IPC: 1.64393 (Simulation time: 0 hr 52 min 8 sec) 
Heartbeat CPU 0 instructions: 1150000002 cycles: 630777183 heartbeat IPC: 1.72648 cumulative IPC: 1.64476 (Simulation time: 0 hr 52 min 34 sec) 
Heartbeat CPU 0 instructions: 1160000000 cycles: 637083987 heartbeat IPC: 1.58559 cumulative IPC: 1.64412 (Simulation time: 0 hr 53 min 22 sec) 
Heartbeat CPU 0 instructions: 1170000002 cycles: 642971336 heartbeat IPC: 1.69856 cumulative IPC: 1.64466 (Simulation time: 0 hr 53 min 48 sec) 
Heartbeat CPU 0 instructions: 1180000002 cycles: 648907517 heartbeat IPC: 1.68458 cumulative IPC: 1.64506 (Simulation time: 0 hr 54 min 15 sec) 
Heartbeat CPU 0 instructions: 1190000004 cycles: 654823205 heartbeat IPC: 1.69042 cumulative IPC: 1.6455 (Simulation time: 0 hr 54 min 41 sec) 
Heartbeat CPU 0 instructions: 1200000000 cycles: 660756208 heartbeat IPC: 1.68549 cumulative IPC: 1.64589 (Simulation time: 0 hr 55 min 8 sec) 
Finished CPU 0 instructions: 1000000000 cycles: 607572447 cumulative IPC: 1.64589 (Simulation time: 0 hr 55 min 8 sec) 

ChampSim completed all CPUs

Region of Interest Statistics

CPU 0 cumulative IPC: 1.64589 instructions: 1000000000 cycles: 607572447
cpu0_DTLB TOTAL     ACCESS:  147683251  HIT:  147679963  MISS:       3288
cpu0_DTLB LOAD      ACCESS:  125389662  HIT:  125389033  MISS:        629
cpu0_DTLB RFO       ACCESS:   22293589  HIT:   22290930  MISS:       2659
cpu0_DTLB PREFETCH  ACCESS:          0  HIT:          0  MISS:          0
cpu0_DTLB WRITEBACK ACCESS:          0  HIT:          0  MISS:          0
cpu0_DTLB TRANSLATION ACCESS:          0  HIT:          0  MISS:          0
cpu0_DTLB PREFETCH  REQUESTED:          0  ISSUED:          0  USEFUL:          0  USELESS:          0
cpu0_DTLB AVERAGE MISS LATENCY: 202.471 cycles
cpu0_ITLB TOTAL     ACCESS:  119391395  HIT:  119391395  MISS:          0
cpu0_ITLB LOAD      ACCESS:  119391395  HIT:  119391395  MISS:          0
cpu0_ITLB RFO       ACCESS:          0  HIT:          0  MISS:          0
cpu0_ITLB PREFETCH  ACCESS:          0  HIT:          0  MISS:          0
cpu0_ITLB WRITEBACK ACCESS:          0  HIT:          0  MISS:          0
cpu0_ITLB TRANSLATION ACCESS:          0  HIT:          0  MISS:          0
cpu0_ITLB PREFETCH  REQUESTED:          0  ISSUED:          0  USEFUL:          0  USELESS:          0
cpu0_ITLB AVERAGE MISS LATENCY: -nan cycles
cpu0_L1I TOTAL     ACCESS:    5681829  HIT:    5681829  MISS:          0
cpu0_L1I LOAD      ACCESS:    5681829  HIT:    5681829  MISS:          0
cpu0_L1I RFO       ACCESS:          0  HIT:          0  MISS:          0
cpu0_L1I PREFETCH  ACCESS:          0  HIT:          0  MISS:          0
cpu0_L1I WRITEBACK ACCESS:          0  HIT:          0  MISS:          0
cpu0_L1I TRANSLATION ACCESS:          0  HIT:          0  MISS:          0
cpu0_L1I PREFETCH  REQUESTED:          0  ISSUED:          0  USEFUL:          0  USELESS:          0
cpu0_L1I AVERAGE MISS LATENCY: -nan cycles
cpu0_STLB TOTAL     ACCESS:       3288  HIT:        363  MISS:       2925
cpu0_STLB LOAD      ACCESS:        629  HIT:        318  MISS:        311
cpu0_STLB RFO       ACCESS:       2659  HIT:         45  MISS:       2614
cpu0_STLB PREFETCH  ACCESS:          0  HIT:          0  MISS:          0
cpu0_STLB WRITEBACK ACCESS:          0  HIT:          0  MISS:          0
cpu0_STLB TRANSLATION ACCESS:          0  HIT:          0  MISS:          0
cpu0_STLB PREFETCH  REQUESTED:          0  ISSUED:          0  USEFUL:          0  USELESS:          0
cpu0_STLB AVERAGE MISS LATENCY: 215.233 cycles
cpu0_L1D TOTAL     ACCESS:  166065255  HIT:  165861433  MISS:     203822
cpu0_L1D LOAD      ACCESS:  128644459  HIT:  128608740  MISS:      35719
cpu0_L1D RFO       ACCESS:   37417871  HIT:   37250013  MISS:     167858
cpu0_L1D PREFETCH  ACCESS:          0  HIT:          0  MISS:          0
cpu0_L1D WRITEBACK ACCESS:          0  HIT:          0  MISS:          0
cpu0_L1D TRANSLATION ACCESS:       2925  HIT:       2680  MISS:        245
cpu0_L1D PREFETCH  REQUESTED:          0  ISSUED:          0  USEFUL:          0  USELESS:          0
cpu0_L1D AVERAGE MISS LATENCY: 822.718 cycles
cpu0_L2C TOTAL     ACCESS:     397435  HIT:     196238  MISS:     201197
cpu0_L2C LOAD      ACCESS:      35719  HIT:      26743  MISS:       8976
cpu0_L2C RFO       ACCESS:     167858  HIT:        451  MISS:     167407
cpu0_L2C PREFETCH  ACCESS:      26400  HIT:       1806  MISS:      24594
cpu0_L2C WRITEBACK ACCESS:     167213  HIT:     166993  MISS:        220
cpu0_L2C TRANSLATION ACCESS:        245  HIT:        245  MISS:          0
cpu0_L2C PREFETCH  REQUESTED:     302521  ISSUED:     300845  USEFUL:      24600  USELESS:          4
cpu0_L2C AVERAGE MISS LATENCY: 826.464 cycles
LLC TOTAL     ACCESS:     632427  HIT:     431222  MISS:     201205
LLC LOAD      ACCESS:       8965  HIT:       8327  MISS:        638
LLC RFO       ACCESS:     167407  HIT:          0  MISS:     167407
LLC PREFETCH  ACCESS:     289201  HIT:     256217  MISS:      32984
LLC WRITEBACK ACCESS:     166854  HIT:     166678  MISS:        176
LLC TRANSLATION ACCESS:          0  HIT:          0  MISS:          0
LLC PREFETCH  REQUESTED:          0  ISSUED:          0  USEFUL:          0  USELESS:          0
LLC AVERAGE MISS LATENCY: 968.844 cycles

DRAM Statistics
 CHANNEL 0
 RQ ROW_BUFFER_HIT:       6808  ROW_BUFFER_MISS:     194221
 DBUS AVG_CONGESTED_CYCLE:    3.96767
 WQ ROW_BUFFER_HIT:      17283  ROW_BUFFER_MISS:     149042  FULL:          0


CPU 0 Branch Prediction Accuracy: 80.5169% MPKI: 28.2727 Average ROB Occupancy at Mispredict: 47.3672
Branch type MPKI
BRANCH_DIRECT_JUMP: 0
BRANCH_INDIRECT: 0
BRANCH_CONDITIONAL: 28.2727
BRANCH_DIRECT_CALL: 0
BRANCH_INDIRECT_CALL: 0
BRANCH_RETURN: 0

***************** Done with 603.bwaves_s-3699B.champsimtrace.xz using spp-dev, on Thu Apr 14 17:39:39 CDT 2022 ******************
