Started running file 627.cam4_s-573B.champsimtrace.xz at time Thu Apr 14 15:35:51 CDT 2022 with prefetcher spp-dev

*** ChampSim Multicore Out-of-Order Simulator ***

Warmup Instructions: 200000000
Simulation Instructions: 1000000000
Number of CPUs: 1
Off-chip DRAM Size: 4 GiB Channels: 1 Width: 64-bit Data Rate: 3200 MT/s

VirtualMemory physical capacity: 8588881920 num_ppages: 2096895
VirtualMemory page size: 4096 log2_page_size: 12

CPU 0 runs /home/faculty/p/pgratz/dpc3_traces/627.cam4_s-573B.champsimtrace.xz
CPU 0 Bimodal branch predictor
Basic BTB sets: 1024 ways: 8 indirect buffer size: 4096 RAS size: 64
SPP-DEV original prefetcher
Heartbeat CPU 0 instructions: 10000000 cycles: 2621728 heartbeat IPC: 3.81428 cumulative IPC: 3.81428 (Simulation time: 0 hr 0 min 28 sec) 
Heartbeat CPU 0 instructions: 20000003 cycles: 5121736 heartbeat IPC: 3.99999 cumulative IPC: 3.90493 (Simulation time: 0 hr 0 min 56 sec) 
Heartbeat CPU 0 instructions: 30000003 cycles: 7621736 heartbeat IPC: 4 cumulative IPC: 3.93611 (Simulation time: 0 hr 1 min 23 sec) 
Heartbeat CPU 0 instructions: 40000000 cycles: 10121792 heartbeat IPC: 3.99991 cumulative IPC: 3.95187 (Simulation time: 0 hr 1 min 50 sec) 
Heartbeat CPU 0 instructions: 50000001 cycles: 12621819 heartbeat IPC: 3.99996 cumulative IPC: 3.96139 (Simulation time: 0 hr 2 min 18 sec) 
Heartbeat CPU 0 instructions: 60000001 cycles: 15121819 heartbeat IPC: 4 cumulative IPC: 3.96778 (Simulation time: 0 hr 2 min 45 sec) 
Heartbeat CPU 0 instructions: 70000001 cycles: 17621819 heartbeat IPC: 4 cumulative IPC: 3.97235 (Simulation time: 0 hr 3 min 13 sec) 
Heartbeat CPU 0 instructions: 80000002 cycles: 20232230 heartbeat IPC: 3.83081 cumulative IPC: 3.95409 (Simulation time: 0 hr 3 min 42 sec) 
Heartbeat CPU 0 instructions: 90000000 cycles: 22863465 heartbeat IPC: 3.8005 cumulative IPC: 3.93641 (Simulation time: 0 hr 4 min 12 sec) 
Heartbeat CPU 0 instructions: 100000004 cycles: 25508840 heartbeat IPC: 3.78018 cumulative IPC: 3.92021 (Simulation time: 0 hr 4 min 40 sec) 
Heartbeat CPU 0 instructions: 110000000 cycles: 28731558 heartbeat IPC: 3.10297 cumulative IPC: 3.82854 (Simulation time: 0 hr 5 min 19 sec) 
Heartbeat CPU 0 instructions: 120000002 cycles: 31234228 heartbeat IPC: 3.99573 cumulative IPC: 3.84194 (Simulation time: 0 hr 5 min 46 sec) 
Heartbeat CPU 0 instructions: 130000001 cycles: 33734229 heartbeat IPC: 4 cumulative IPC: 3.85365 (Simulation time: 0 hr 6 min 13 sec) 
Heartbeat CPU 0 instructions: 140000003 cycles: 36234269 heartbeat IPC: 3.99994 cumulative IPC: 3.86375 (Simulation time: 0 hr 6 min 40 sec) 
Heartbeat CPU 0 instructions: 150000001 cycles: 38734307 heartbeat IPC: 3.99994 cumulative IPC: 3.87254 (Simulation time: 0 hr 7 min 8 sec) 
Heartbeat CPU 0 instructions: 160000002 cycles: 41234310 heartbeat IPC: 4 cumulative IPC: 3.88026 (Simulation time: 0 hr 7 min 36 sec) 
Heartbeat CPU 0 instructions: 170000000 cycles: 43734312 heartbeat IPC: 4 cumulative IPC: 3.88711 (Simulation time: 0 hr 8 min 3 sec) 
Heartbeat CPU 0 instructions: 180000003 cycles: 46340535 heartbeat IPC: 3.83697 cumulative IPC: 3.88429 (Simulation time: 0 hr 8 min 32 sec) 
Heartbeat CPU 0 instructions: 190000000 cycles: 48942040 heartbeat IPC: 3.84393 cumulative IPC: 3.88214 (Simulation time: 0 hr 9 min 1 sec) 
Heartbeat CPU 0 instructions: 200000000 cycles: 51560319 heartbeat IPC: 3.8193 cumulative IPC: 3.87895 (Simulation time: 0 hr 9 min 29 sec) 

Warmup complete CPU 0 instructions: 200000004 cycles: 51560320 (Simulation time: 0 hr 9 min 29 sec) 

Heartbeat CPU 0 instructions: 210000004 cycles: 84364965 heartbeat IPC: 0.304835 cumulative IPC: 0.304835 (Simulation time: 0 hr 14 min 36 sec) 
Heartbeat CPU 0 instructions: 220000003 cycles: 91233787 heartbeat IPC: 1.45585 cumulative IPC: 0.504115 (Simulation time: 0 hr 15 min 12 sec) 
Heartbeat CPU 0 instructions: 230000002 cycles: 96583690 heartbeat IPC: 1.86919 cumulative IPC: 0.666321 (Simulation time: 0 hr 15 min 47 sec) 
Heartbeat CPU 0 instructions: 240000001 cycles: 101783636 heartbeat IPC: 1.9231 cumulative IPC: 0.796443 (Simulation time: 0 hr 16 min 21 sec) 
Heartbeat CPU 0 instructions: 250000001 cycles: 107525666 heartbeat IPC: 1.74154 cumulative IPC: 0.89341 (Simulation time: 0 hr 16 min 52 sec) 
Heartbeat CPU 0 instructions: 260000001 cycles: 114013779 heartbeat IPC: 1.54128 cumulative IPC: 0.960715 (Simulation time: 0 hr 17 min 21 sec) 
Heartbeat CPU 0 instructions: 270000000 cycles: 120449437 heartbeat IPC: 1.55384 cumulative IPC: 1.01613 (Simulation time: 0 hr 17 min 51 sec) 
Heartbeat CPU 0 instructions: 280000002 cycles: 126825026 heartbeat IPC: 1.56848 cumulative IPC: 1.06292 (Simulation time: 0 hr 18 min 23 sec) 
Heartbeat CPU 0 instructions: 290000002 cycles: 135383232 heartbeat IPC: 1.16847 cumulative IPC: 1.07369 (Simulation time: 0 hr 18 min 56 sec) 
Heartbeat CPU 0 instructions: 300000002 cycles: 145436763 heartbeat IPC: 0.994675 cumulative IPC: 1.06523 (Simulation time: 0 hr 19 min 30 sec) 
Heartbeat CPU 0 instructions: 310000001 cycles: 178378877 heartbeat IPC: 0.303563 cumulative IPC: 0.867381 (Simulation time: 0 hr 24 min 43 sec) 
Heartbeat CPU 0 instructions: 320000001 cycles: 186533312 heartbeat IPC: 1.22633 cumulative IPC: 0.889067 (Simulation time: 0 hr 25 min 19 sec) 
Heartbeat CPU 0 instructions: 330000003 cycles: 191963178 heartbeat IPC: 1.84167 cumulative IPC: 0.925907 (Simulation time: 0 hr 25 min 55 sec) 
Heartbeat CPU 0 instructions: 340000000 cycles: 197146949 heartbeat IPC: 1.9291 cumulative IPC: 0.961627 (Simulation time: 0 hr 26 min 29 sec) 
Heartbeat CPU 0 instructions: 350000000 cycles: 202463455 heartbeat IPC: 1.88093 cumulative IPC: 0.994015 (Simulation time: 0 hr 27 min 1 sec) 
Heartbeat CPU 0 instructions: 360000001 cycles: 208505550 heartbeat IPC: 1.65506 cumulative IPC: 1.01946 (Simulation time: 0 hr 27 min 31 sec) 
Heartbeat CPU 0 instructions: 370000001 cycles: 215030751 heartbeat IPC: 1.53252 cumulative IPC: 1.03994 (Simulation time: 0 hr 28 min 0 sec) 
Heartbeat CPU 0 instructions: 380000003 cycles: 221339162 heartbeat IPC: 1.58519 cumulative IPC: 1.0602 (Simulation time: 0 hr 28 min 31 sec) 
Heartbeat CPU 0 instructions: 390000001 cycles: 229085150 heartbeat IPC: 1.29099 cumulative IPC: 1.07027 (Simulation time: 0 hr 29 min 4 sec) 
Heartbeat CPU 0 instructions: 400000000 cycles: 237981376 heartbeat IPC: 1.12407 cumulative IPC: 1.07284 (Simulation time: 0 hr 29 min 35 sec) 
Heartbeat CPU 0 instructions: 410000001 cycles: 250941446 heartbeat IPC: 0.771601 cumulative IPC: 1.05326 (Simulation time: 0 hr 31 min 2 sec) 
Heartbeat CPU 0 instructions: 420000000 cycles: 281008312 heartbeat IPC: 0.332592 cumulative IPC: 0.958823 (Simulation time: 0 hr 35 min 24 sec) 
Heartbeat CPU 0 instructions: 430000001 cycles: 286867348 heartbeat IPC: 1.70677 cumulative IPC: 0.977446 (Simulation time: 0 hr 36 min 1 sec) 
Heartbeat CPU 0 instructions: 440000001 cycles: 292161194 heartbeat IPC: 1.88899 cumulative IPC: 0.997503 (Simulation time: 0 hr 36 min 36 sec) 
Heartbeat CPU 0 instructions: 450000003 cycles: 297437816 heartbeat IPC: 1.89515 cumulative IPC: 1.01677 (Simulation time: 0 hr 37 min 10 sec) 
Heartbeat CPU 0 instructions: 460000000 cycles: 303426884 heartbeat IPC: 1.66971 cumulative IPC: 1.03229 (Simulation time: 0 hr 37 min 40 sec) 
Heartbeat CPU 0 instructions: 470000000 cycles: 309908575 heartbeat IPC: 1.54281 cumulative IPC: 1.0451 (Simulation time: 0 hr 38 min 9 sec) 
Heartbeat CPU 0 instructions: 480000000 cycles: 316305951 heartbeat IPC: 1.56314 cumulative IPC: 1.05762 (Simulation time: 0 hr 38 min 39 sec) 
Heartbeat CPU 0 instructions: 490000000 cycles: 324039630 heartbeat IPC: 1.29305 cumulative IPC: 1.0643 (Simulation time: 0 hr 39 min 12 sec) 
Heartbeat CPU 0 instructions: 500000000 cycles: 332778199 heartbeat IPC: 1.14435 cumulative IPC: 1.06679 (Simulation time: 0 hr 39 min 44 sec) 
Heartbeat CPU 0 instructions: 510000000 cycles: 342585339 heartbeat IPC: 1.01967 cumulative IPC: 1.0652 (Simulation time: 0 hr 40 min 31 sec) 
Heartbeat CPU 0 instructions: 520000004 cycles: 375750476 heartbeat IPC: 0.301522 cumulative IPC: 0.987075 (Simulation time: 0 hr 45 min 34 sec) 
Heartbeat CPU 0 instructions: 530000000 cycles: 381624367 heartbeat IPC: 1.70245 cumulative IPC: 0.999806 (Simulation time: 0 hr 46 min 11 sec) 
Heartbeat CPU 0 instructions: 540000002 cycles: 386962886 heartbeat IPC: 1.87318 cumulative IPC: 1.01371 (Simulation time: 0 hr 46 min 46 sec) 
Heartbeat CPU 0 instructions: 550000002 cycles: 392175269 heartbeat IPC: 1.91851 cumulative IPC: 1.02755 (Simulation time: 0 hr 47 min 19 sec) 
Heartbeat CPU 0 instructions: 560000000 cycles: 397991496 heartbeat IPC: 1.71933 cumulative IPC: 1.03917 (Simulation time: 0 hr 47 min 49 sec) 
Heartbeat CPU 0 instructions: 570000000 cycles: 404212042 heartbeat IPC: 1.60758 cumulative IPC: 1.04919 (Simulation time: 0 hr 48 min 18 sec) 
Heartbeat CPU 0 instructions: 580000000 cycles: 410570919 heartbeat IPC: 1.5726 cumulative IPC: 1.05846 (Simulation time: 0 hr 48 min 48 sec) 
Heartbeat CPU 0 instructions: 590000000 cycles: 418253968 heartbeat IPC: 1.30157 cumulative IPC: 1.06356 (Simulation time: 0 hr 49 min 21 sec) 
Heartbeat CPU 0 instructions: 600000001 cycles: 427163836 heartbeat IPC: 1.12235 cumulative IPC: 1.06495 (Simulation time: 0 hr 49 min 53 sec) 
Heartbeat CPU 0 instructions: 610000004 cycles: 436739821 heartbeat IPC: 1.04428 cumulative IPC: 1.06444 (Simulation time: 0 hr 50 min 38 sec) 
Heartbeat CPU 0 instructions: 620000002 cycles: 469758408 heartbeat IPC: 0.30286 cumulative IPC: 1.00431 (Simulation time: 0 hr 55 min 40 sec) 
Heartbeat CPU 0 instructions: 630000003 cycles: 475908736 heartbeat IPC: 1.62593 cumulative IPC: 1.01332 (Simulation time: 0 hr 56 min 16 sec) 
Heartbeat CPU 0 instructions: 640000001 cycles: 481240394 heartbeat IPC: 1.87559 cumulative IPC: 1.02402 (Simulation time: 0 hr 56 min 51 sec) 
Heartbeat CPU 0 instructions: 650000000 cycles: 486731743 heartbeat IPC: 1.82105 cumulative IPC: 1.03408 (Simulation time: 0 hr 57 min 23 sec) 
Heartbeat CPU 0 instructions: 660000000 cycles: 493162680 heartbeat IPC: 1.55498 cumulative IPC: 1.04166 (Simulation time: 0 hr 57 min 52 sec) 
Heartbeat CPU 0 instructions: 670000000 cycles: 499715132 heartbeat IPC: 1.52615 cumulative IPC: 1.04874 (Simulation time: 0 hr 58 min 20 sec) 
Heartbeat CPU 0 instructions: 680000003 cycles: 506769982 heartbeat IPC: 1.41746 cumulative IPC: 1.05446 (Simulation time: 0 hr 58 min 53 sec) 
Heartbeat CPU 0 instructions: 690000002 cycles: 515396500 heartbeat IPC: 1.15922 cumulative IPC: 1.05641 (Simulation time: 0 hr 59 min 25 sec) 
Heartbeat CPU 0 instructions: 700000001 cycles: 525606651 heartbeat IPC: 0.979417 cumulative IPC: 1.05475 (Simulation time: 1 hr 0 min 6 sec) 
Heartbeat CPU 0 instructions: 710000001 cycles: 558351688 heartbeat IPC: 0.30539 cumulative IPC: 1.00633 (Simulation time: 1 hr 5 min 13 sec) 
Heartbeat CPU 0 instructions: 720000004 cycles: 565005477 heartbeat IPC: 1.5029 cumulative IPC: 1.01277 (Simulation time: 1 hr 5 min 48 sec) 
Heartbeat CPU 0 instructions: 730000001 cycles: 570519910 heartbeat IPC: 1.81342 cumulative IPC: 1.02127 (Simulation time: 1 hr 6 min 25 sec) 
Heartbeat CPU 0 instructions: 740000001 cycles: 576118576 heartbeat IPC: 1.78614 cumulative IPC: 1.02944 (Simulation time: 1 hr 6 min 56 sec) 
Heartbeat CPU 0 instructions: 750000004 cycles: 582298450 heartbeat IPC: 1.61816 cumulative IPC: 1.03629 (Simulation time: 1 hr 7 min 24 sec) 
Heartbeat CPU 0 instructions: 760000000 cycles: 588756131 heartbeat IPC: 1.54854 cumulative IPC: 1.04245 (Simulation time: 1 hr 7 min 53 sec) 
Heartbeat CPU 0 instructions: 770000001 cycles: 595866948 heartbeat IPC: 1.40631 cumulative IPC: 1.0472 (Simulation time: 1 hr 8 min 26 sec) 
Heartbeat CPU 0 instructions: 780000003 cycles: 604324867 heartbeat IPC: 1.18232 cumulative IPC: 1.04927 (Simulation time: 1 hr 8 min 58 sec) 
Heartbeat CPU 0 instructions: 790000000 cycles: 613990111 heartbeat IPC: 1.03463 cumulative IPC: 1.04902 (Simulation time: 1 hr 9 min 34 sec) 
Heartbeat CPU 0 instructions: 800000000 cycles: 647298864 heartbeat IPC: 0.300221 cumulative IPC: 1.00715 (Simulation time: 1 hr 14 min 46 sec) 
Heartbeat CPU 0 instructions: 810000000 cycles: 654255457 heartbeat IPC: 1.43749 cumulative IPC: 1.01212 (Simulation time: 1 hr 15 min 21 sec) 
Heartbeat CPU 0 instructions: 820000004 cycles: 659693101 heartbeat IPC: 1.83903 cumulative IPC: 1.01951 (Simulation time: 1 hr 15 min 57 sec) 
Heartbeat CPU 0 instructions: 830000002 cycles: 665493935 heartbeat IPC: 1.72389 cumulative IPC: 1.02617 (Simulation time: 1 hr 16 min 28 sec) 
Heartbeat CPU 0 instructions: 840000003 cycles: 671457544 heartbeat IPC: 1.67684 cumulative IPC: 1.03243 (Simulation time: 1 hr 16 min 58 sec) 
Heartbeat CPU 0 instructions: 850000004 cycles: 677895201 heartbeat IPC: 1.55336 cumulative IPC: 1.03778 (Simulation time: 1 hr 17 min 27 sec) 
Heartbeat CPU 0 instructions: 860000003 cycles: 684370335 heartbeat IPC: 1.54437 cumulative IPC: 1.04297 (Simulation time: 1 hr 17 min 59 sec) 
Heartbeat CPU 0 instructions: 870000001 cycles: 693208365 heartbeat IPC: 1.13147 cumulative IPC: 1.04419 (Simulation time: 1 hr 18 min 31 sec) 
Heartbeat CPU 0 instructions: 880000003 cycles: 703100294 heartbeat IPC: 1.01093 cumulative IPC: 1.04368 (Simulation time: 1 hr 19 min 7 sec) 
Heartbeat CPU 0 instructions: 890000000 cycles: 736236745 heartbeat IPC: 0.301782 cumulative IPC: 1.00778 (Simulation time: 1 hr 24 min 18 sec) 
Heartbeat CPU 0 instructions: 900000001 cycles: 743580323 heartbeat IPC: 1.36173 cumulative IPC: 1.01153 (Simulation time: 1 hr 24 min 52 sec) 
Heartbeat CPU 0 instructions: 910000000 cycles: 748897989 heartbeat IPC: 1.88052 cumulative IPC: 1.01816 (Simulation time: 1 hr 25 min 27 sec) 
Heartbeat CPU 0 instructions: 920000002 cycles: 754161235 heartbeat IPC: 1.89997 cumulative IPC: 1.02476 (Simulation time: 1 hr 26 min 2 sec) 
Heartbeat CPU 0 instructions: 930000000 cycles: 760288795 heartbeat IPC: 1.63197 cumulative IPC: 1.03001 (Simulation time: 1 hr 26 min 32 sec) 
Heartbeat CPU 0 instructions: 940000000 cycles: 766867911 heartbeat IPC: 1.51996 cumulative IPC: 1.03452 (Simulation time: 1 hr 27 min 1 sec) 
Heartbeat CPU 0 instructions: 950000001 cycles: 773315873 heartbeat IPC: 1.55088 cumulative IPC: 1.03913 (Simulation time: 1 hr 27 min 30 sec) 
Heartbeat CPU 0 instructions: 960000000 cycles: 780936085 heartbeat IPC: 1.3123 cumulative IPC: 1.04199 (Simulation time: 1 hr 28 min 3 sec) 
Heartbeat CPU 0 instructions: 970000000 cycles: 789480728 heartbeat IPC: 1.17032 cumulative IPC: 1.04347 (Simulation time: 1 hr 28 min 36 sec) 
Heartbeat CPU 0 instructions: 980000004 cycles: 799305220 heartbeat IPC: 1.01786 cumulative IPC: 1.04314 (Simulation time: 1 hr 29 min 17 sec) 
Heartbeat CPU 0 instructions: 990000002 cycles: 832363563 heartbeat IPC: 0.302495 cumulative IPC: 1.01178 (Simulation time: 1 hr 34 min 22 sec) 
Heartbeat CPU 0 instructions: 1000000000 cycles: 838673420 heartbeat IPC: 1.58482 cumulative IPC: 1.01637 (Simulation time: 1 hr 34 min 58 sec) 
Heartbeat CPU 0 instructions: 1010000000 cycles: 844051570 heartbeat IPC: 1.85938 cumulative IPC: 1.02209 (Simulation time: 1 hr 35 min 34 sec) 
Heartbeat CPU 0 instructions: 1020000002 cycles: 849229391 heartbeat IPC: 1.93131 cumulative IPC: 1.028 (Simulation time: 1 hr 36 min 6 sec) 
Heartbeat CPU 0 instructions: 1030000001 cycles: 855584380 heartbeat IPC: 1.57357 cumulative IPC: 1.03231 (Simulation time: 1 hr 36 min 34 sec) 
Heartbeat CPU 0 instructions: 1040000002 cycles: 861524293 heartbeat IPC: 1.68353 cumulative IPC: 1.03708 (Simulation time: 1 hr 37 min 4 sec) 
Heartbeat CPU 0 instructions: 1050000003 cycles: 867660869 heartbeat IPC: 1.62957 cumulative IPC: 1.04154 (Simulation time: 1 hr 37 min 35 sec) 
Heartbeat CPU 0 instructions: 1060000000 cycles: 875605818 heartbeat IPC: 1.25866 cumulative IPC: 1.04363 (Simulation time: 1 hr 38 min 8 sec) 
Heartbeat CPU 0 instructions: 1070000000 cycles: 885361850 heartbeat IPC: 1.02501 cumulative IPC: 1.04341 (Simulation time: 1 hr 38 min 38 sec) 
Heartbeat CPU 0 instructions: 1080000004 cycles: 911763262 heartbeat IPC: 0.378768 cumulative IPC: 1.02301 (Simulation time: 1 hr 42 min 57 sec) 
Heartbeat CPU 0 instructions: 1090000002 cycles: 927658900 heartbeat IPC: 0.629103 cumulative IPC: 1.01587 (Simulation time: 1 hr 44 min 28 sec) 
Heartbeat CPU 0 instructions: 1100000001 cycles: 933070159 heartbeat IPC: 1.848 cumulative IPC: 1.02098 (Simulation time: 1 hr 45 min 4 sec) 
Heartbeat CPU 0 instructions: 1110000002 cycles: 938308297 heartbeat IPC: 1.90908 cumulative IPC: 1.02622 (Simulation time: 1 hr 45 min 37 sec) 
Heartbeat CPU 0 instructions: 1120000002 cycles: 943547712 heartbeat IPC: 1.90861 cumulative IPC: 1.0314 (Simulation time: 1 hr 46 min 10 sec) 
Heartbeat CPU 0 instructions: 1130000000 cycles: 950178507 heartbeat IPC: 1.50811 cumulative IPC: 1.03492 (Simulation time: 1 hr 46 min 39 sec) 
Heartbeat CPU 0 instructions: 1140000003 cycles: 956798698 heartbeat IPC: 1.51053 cumulative IPC: 1.0384 (Simulation time: 1 hr 47 min 8 sec) 
Heartbeat CPU 0 instructions: 1150000000 cycles: 962873301 heartbeat IPC: 1.6462 cumulative IPC: 1.04245 (Simulation time: 1 hr 47 min 39 sec) 
Heartbeat CPU 0 instructions: 1160000001 cycles: 971132406 heartbeat IPC: 1.21079 cumulative IPC: 1.04396 (Simulation time: 1 hr 48 min 12 sec) 
Heartbeat CPU 0 instructions: 1170000000 cycles: 981028378 heartbeat IPC: 1.01051 cumulative IPC: 1.04361 (Simulation time: 1 hr 48 min 44 sec) 
Heartbeat CPU 0 instructions: 1180000002 cycles: 1008851561 heartbeat IPC: 0.359413 cumulative IPC: 1.02372 (Simulation time: 1 hr 53 min 11 sec) 
Heartbeat CPU 0 instructions: 1190000004 cycles: 1022930263 heartbeat IPC: 0.710293 cumulative IPC: 1.01918 (Simulation time: 1 hr 54 min 32 sec) 
Heartbeat CPU 0 instructions: 1200000003 cycles: 1028378504 heartbeat IPC: 1.83545 cumulative IPC: 1.02373 (Simulation time: 1 hr 55 min 8 sec) 
Finished CPU 0 instructions: 1000000004 cycles: 976818185 cumulative IPC: 1.02373 (Simulation time: 1 hr 55 min 8 sec) 

ChampSim completed all CPUs

Region of Interest Statistics

CPU 0 cumulative IPC: 1.02373 instructions: 1000000004 cycles: 976818185
cpu0_DTLB TOTAL     ACCESS:  158976864  HIT:  158332116  MISS:     644748
cpu0_DTLB LOAD      ACCESS:  105551708  HIT:  105070591  MISS:     481117
cpu0_DTLB RFO       ACCESS:   53425156  HIT:   53261525  MISS:     163631
cpu0_DTLB PREFETCH  ACCESS:          0  HIT:          0  MISS:          0
cpu0_DTLB WRITEBACK ACCESS:          0  HIT:          0  MISS:          0
cpu0_DTLB TRANSLATION ACCESS:          0  HIT:          0  MISS:          0
cpu0_DTLB PREFETCH  REQUESTED:          0  ISSUED:          0  USEFUL:          0  USELESS:          0
cpu0_DTLB AVERAGE MISS LATENCY: 13.5923 cycles
cpu0_ITLB TOTAL     ACCESS:   73830695  HIT:   73818495  MISS:      12200
cpu0_ITLB LOAD      ACCESS:   73830695  HIT:   73818495  MISS:      12200
cpu0_ITLB RFO       ACCESS:          0  HIT:          0  MISS:          0
cpu0_ITLB PREFETCH  ACCESS:          0  HIT:          0  MISS:          0
cpu0_ITLB WRITEBACK ACCESS:          0  HIT:          0  MISS:          0
cpu0_ITLB TRANSLATION ACCESS:          0  HIT:          0  MISS:          0
cpu0_ITLB PREFETCH  REQUESTED:          0  ISSUED:          0  USEFUL:          0  USELESS:          0
cpu0_ITLB AVERAGE MISS LATENCY: 12.5209 cycles
cpu0_L1I TOTAL     ACCESS:   60454636  HIT:   60051521  MISS:     403115
cpu0_L1I LOAD      ACCESS:   60454636  HIT:   60051521  MISS:     403115
cpu0_L1I RFO       ACCESS:          0  HIT:          0  MISS:          0
cpu0_L1I PREFETCH  ACCESS:          0  HIT:          0  MISS:          0
cpu0_L1I WRITEBACK ACCESS:          0  HIT:          0  MISS:          0
cpu0_L1I TRANSLATION ACCESS:          0  HIT:          0  MISS:          0
cpu0_L1I PREFETCH  REQUESTED:          0  ISSUED:          0  USEFUL:          0  USELESS:          0
cpu0_L1I AVERAGE MISS LATENCY: 39.6985 cycles
cpu0_STLB TOTAL     ACCESS:     656948  HIT:     651735  MISS:       5213
cpu0_STLB LOAD      ACCESS:     493317  HIT:     490585  MISS:       2732
cpu0_STLB RFO       ACCESS:     163631  HIT:     161150  MISS:       2481
cpu0_STLB PREFETCH  ACCESS:          0  HIT:          0  MISS:          0
cpu0_STLB WRITEBACK ACCESS:          0  HIT:          0  MISS:          0
cpu0_STLB TRANSLATION ACCESS:          0  HIT:          0  MISS:          0
cpu0_STLB PREFETCH  REQUESTED:          0  ISSUED:          0  USEFUL:          0  USELESS:          0
cpu0_STLB AVERAGE MISS LATENCY: 317.394 cycles
cpu0_L1D TOTAL     ACCESS:  188625250  HIT:  178984245  MISS:    9641005
cpu0_L1D LOAD      ACCESS:  105583407  HIT:  102505662  MISS:    3077745
cpu0_L1D RFO       ACCESS:   83036835  HIT:   76475060  MISS:    6561775
cpu0_L1D PREFETCH  ACCESS:          0  HIT:          0  MISS:          0
cpu0_L1D WRITEBACK ACCESS:          0  HIT:          0  MISS:          0
cpu0_L1D TRANSLATION ACCESS:       5008  HIT:       3523  MISS:       1485
cpu0_L1D PREFETCH  REQUESTED:          0  ISSUED:          0  USEFUL:          0  USELESS:          0
cpu0_L1D AVERAGE MISS LATENCY: 569.219 cycles
cpu0_L2C TOTAL     ACCESS:   24383823  HIT:   18343672  MISS:    6040151
cpu0_L2C LOAD      ACCESS:    3480505  HIT:    2853594  MISS:     626911
cpu0_L2C RFO       ACCESS:    6561517  HIT:    1222015  MISS:    5339502
cpu0_L2C PREFETCH  ACCESS:    7382858  HIT:    7310759  MISS:      72099
cpu0_L2C WRITEBACK ACCESS:    6957458  HIT:    6956383  MISS:       1075
cpu0_L2C TRANSLATION ACCESS:       1485  HIT:        921  MISS:        564
cpu0_L2C PREFETCH  REQUESTED:   13119575  ISSUED:    9233586  USEFUL:     146282  USELESS:       3295
cpu0_L2C AVERAGE MISS LATENCY: 889.571 cycles
LLC TOTAL     ACCESS:   12696761  HIT:    6987568  MISS:    5709193
LLC LOAD      ACCESS:     549437  HIT:     305210  MISS:     244227
LLC RFO       ACCESS:    5339494  HIT:     121480  MISS:    5218014
LLC PREFETCH  ACCESS:    1392527  HIT:    1153152  MISS:     239375
LLC WRITEBACK ACCESS:    5414739  HIT:    5407513  MISS:       7226
LLC TRANSLATION ACCESS:        564  HIT:        213  MISS:        351
LLC PREFETCH  REQUESTED:          0  ISSUED:          0  USEFUL:          0  USELESS:          0
LLC AVERAGE MISS LATENCY: 937.341 cycles

DRAM Statistics
 CHANNEL 0
 RQ ROW_BUFFER_HIT:    1281030  ROW_BUFFER_MISS:    4420517
 DBUS AVG_CONGESTED_CYCLE:    3.99101
 WQ ROW_BUFFER_HIT:     888507  ROW_BUFFER_MISS:    4359806  FULL:          0


CPU 0 Branch Prediction Accuracy: 90.1568% MPKI: 13.1722 Average ROB Occupancy at Mispredict: 71.5583
Branch type MPKI
BRANCH_DIRECT_JUMP: 0.003136
BRANCH_INDIRECT: 0.001297
BRANCH_CONDITIONAL: 13.1522
BRANCH_DIRECT_CALL: 0.015511
BRANCH_INDIRECT_CALL: 0
BRANCH_RETURN: 4e-06

***************** Done with 627.cam4_s-573B.champsimtrace.xz using spp-dev, on Thu Apr 14 17:30:59 CDT 2022 ******************
