Started running file 631.deepsjeng_s-928B.champsimtrace.xz at time Thu Apr 14 13:08:05 CDT 2022 with prefetcher ppf-spp-dev

*** ChampSim Multicore Out-of-Order Simulator ***

Warmup Instructions: 200000000
Simulation Instructions: 1000000000
Number of CPUs: 1
Off-chip DRAM Size: 4 GiB Channels: 1 Width: 64-bit Data Rate: 3200 MT/s

VirtualMemory physical capacity: 8588881920 num_ppages: 2096895
VirtualMemory page size: 4096 log2_page_size: 12

CPU 0 runs /home/faculty/p/pgratz/dpc3_traces/631.deepsjeng_s-928B.champsimtrace.xz
CPU 0 Bimodal branch predictor
Basic BTB sets: 1024 ways: 8 indirect buffer size: 4096 RAS size: 64
cpu0_L2CSPP DEV Prefetcher
cpu0_L2C -- Directory Name = ./data/ppf-spp-dev_20220414130805_631
Heartbeat CPU 0 instructions: 10000002 cycles: 2500176 heartbeat IPC: 3.99972 cumulative IPC: 3.99972 (Simulation time: 0 hr 0 min 31 sec) 
Heartbeat CPU 0 instructions: 20000002 cycles: 5000176 heartbeat IPC: 4 cumulative IPC: 3.99986 (Simulation time: 0 hr 1 min 2 sec) 
Heartbeat CPU 0 instructions: 30000002 cycles: 7500176 heartbeat IPC: 4 cumulative IPC: 3.99991 (Simulation time: 0 hr 1 min 33 sec) 
Heartbeat CPU 0 instructions: 40000002 cycles: 10000176 heartbeat IPC: 4 cumulative IPC: 3.99993 (Simulation time: 0 hr 2 min 4 sec) 
Heartbeat CPU 0 instructions: 50000002 cycles: 12500176 heartbeat IPC: 4 cumulative IPC: 3.99994 (Simulation time: 0 hr 2 min 35 sec) 
Heartbeat CPU 0 instructions: 60000002 cycles: 15000176 heartbeat IPC: 4 cumulative IPC: 3.99995 (Simulation time: 0 hr 3 min 6 sec) 
Heartbeat CPU 0 instructions: 70000002 cycles: 17500176 heartbeat IPC: 4 cumulative IPC: 3.99996 (Simulation time: 0 hr 3 min 37 sec) 
Heartbeat CPU 0 instructions: 80000002 cycles: 20000176 heartbeat IPC: 4 cumulative IPC: 3.99996 (Simulation time: 0 hr 4 min 8 sec) 
Heartbeat CPU 0 instructions: 90000002 cycles: 22500176 heartbeat IPC: 4 cumulative IPC: 3.99997 (Simulation time: 0 hr 4 min 39 sec) 
Heartbeat CPU 0 instructions: 100000002 cycles: 25000183 heartbeat IPC: 3.99999 cumulative IPC: 3.99997 (Simulation time: 0 hr 5 min 10 sec) 
Heartbeat CPU 0 instructions: 110000002 cycles: 27500183 heartbeat IPC: 4 cumulative IPC: 3.99997 (Simulation time: 0 hr 5 min 41 sec) 
Heartbeat CPU 0 instructions: 120000002 cycles: 30000183 heartbeat IPC: 4 cumulative IPC: 3.99998 (Simulation time: 0 hr 6 min 13 sec) 
Heartbeat CPU 0 instructions: 130000002 cycles: 32500183 heartbeat IPC: 4 cumulative IPC: 3.99998 (Simulation time: 0 hr 6 min 44 sec) 
Heartbeat CPU 0 instructions: 140000002 cycles: 35000183 heartbeat IPC: 4 cumulative IPC: 3.99998 (Simulation time: 0 hr 7 min 15 sec) 
Heartbeat CPU 0 instructions: 150000002 cycles: 37500183 heartbeat IPC: 4 cumulative IPC: 3.99998 (Simulation time: 0 hr 7 min 46 sec) 
Heartbeat CPU 0 instructions: 160000002 cycles: 40000183 heartbeat IPC: 4 cumulative IPC: 3.99998 (Simulation time: 0 hr 8 min 17 sec) 
Heartbeat CPU 0 instructions: 170000002 cycles: 42500183 heartbeat IPC: 4 cumulative IPC: 3.99998 (Simulation time: 0 hr 8 min 48 sec) 
Heartbeat CPU 0 instructions: 180000000 cycles: 45000184 heartbeat IPC: 4 cumulative IPC: 3.99998 (Simulation time: 0 hr 9 min 19 sec) 
Heartbeat CPU 0 instructions: 190000003 cycles: 47500200 heartbeat IPC: 3.99998 cumulative IPC: 3.99998 (Simulation time: 0 hr 9 min 51 sec) 
Heartbeat CPU 0 instructions: 200000003 cycles: 50000200 heartbeat IPC: 4 cumulative IPC: 3.99998 (Simulation time: 0 hr 10 min 22 sec) 

Warmup complete CPU 0 instructions: 200000003 cycles: 50000200 (Simulation time: 0 hr 10 min 22 sec) 

Heartbeat CPU 0 instructions: 210000000 cycles: 57887158 heartbeat IPC: 1.26792 cumulative IPC: 1.26792 (Simulation time: 0 hr 10 min 56 sec) 
Heartbeat CPU 0 instructions: 220000003 cycles: 65984822 heartbeat IPC: 1.23492 cumulative IPC: 1.2512 (Simulation time: 0 hr 11 min 30 sec) 
Heartbeat CPU 0 instructions: 230000001 cycles: 73993280 heartbeat IPC: 1.24868 cumulative IPC: 1.25036 (Simulation time: 0 hr 12 min 4 sec) 
Heartbeat CPU 0 instructions: 240000003 cycles: 81942860 heartbeat IPC: 1.25793 cumulative IPC: 1.25224 (Simulation time: 0 hr 12 min 38 sec) 
Heartbeat CPU 0 instructions: 250000000 cycles: 89824956 heartbeat IPC: 1.2687 cumulative IPC: 1.2555 (Simulation time: 0 hr 13 min 12 sec) 
Heartbeat CPU 0 instructions: 260000000 cycles: 97784125 heartbeat IPC: 1.25641 cumulative IPC: 1.25565 (Simulation time: 0 hr 13 min 46 sec) 
Heartbeat CPU 0 instructions: 270000002 cycles: 105726282 heartbeat IPC: 1.2591 cumulative IPC: 1.25614 (Simulation time: 0 hr 14 min 20 sec) 
Heartbeat CPU 0 instructions: 280000001 cycles: 113741857 heartbeat IPC: 1.24757 cumulative IPC: 1.25507 (Simulation time: 0 hr 14 min 53 sec) 
Heartbeat CPU 0 instructions: 290000000 cycles: 121616193 heartbeat IPC: 1.26995 cumulative IPC: 1.2567 (Simulation time: 0 hr 15 min 28 sec) 
Heartbeat CPU 0 instructions: 300000002 cycles: 129686335 heartbeat IPC: 1.23914 cumulative IPC: 1.25492 (Simulation time: 0 hr 16 min 2 sec) 
Heartbeat CPU 0 instructions: 310000000 cycles: 137798824 heartbeat IPC: 1.23267 cumulative IPC: 1.25287 (Simulation time: 0 hr 16 min 35 sec) 
Heartbeat CPU 0 instructions: 320000000 cycles: 145838802 heartbeat IPC: 1.24378 cumulative IPC: 1.2521 (Simulation time: 0 hr 17 min 9 sec) 
Heartbeat CPU 0 instructions: 330000000 cycles: 153991035 heartbeat IPC: 1.22666 cumulative IPC: 1.25011 (Simulation time: 0 hr 17 min 43 sec) 
Heartbeat CPU 0 instructions: 340000004 cycles: 162006228 heartbeat IPC: 1.24763 cumulative IPC: 1.24993 (Simulation time: 0 hr 18 min 16 sec) 
Heartbeat CPU 0 instructions: 350000002 cycles: 169957261 heartbeat IPC: 1.2577 cumulative IPC: 1.25045 (Simulation time: 0 hr 18 min 50 sec) 
Heartbeat CPU 0 instructions: 360000000 cycles: 177796985 heartbeat IPC: 1.27555 cumulative IPC: 1.25199 (Simulation time: 0 hr 19 min 24 sec) 
Heartbeat CPU 0 instructions: 370000002 cycles: 185609136 heartbeat IPC: 1.28006 cumulative IPC: 1.2536 (Simulation time: 0 hr 19 min 58 sec) 
Heartbeat CPU 0 instructions: 380000000 cycles: 193512588 heartbeat IPC: 1.26527 cumulative IPC: 1.25425 (Simulation time: 0 hr 20 min 31 sec) 
Heartbeat CPU 0 instructions: 390000000 cycles: 201552603 heartbeat IPC: 1.24378 cumulative IPC: 1.25369 (Simulation time: 0 hr 21 min 4 sec) 
Heartbeat CPU 0 instructions: 400000001 cycles: 209581527 heartbeat IPC: 1.2455 cumulative IPC: 1.25328 (Simulation time: 0 hr 21 min 37 sec) 
Heartbeat CPU 0 instructions: 410000003 cycles: 217846991 heartbeat IPC: 1.20985 cumulative IPC: 1.25114 (Simulation time: 0 hr 22 min 9 sec) 
Heartbeat CPU 0 instructions: 420000000 cycles: 225936800 heartbeat IPC: 1.23612 cumulative IPC: 1.25045 (Simulation time: 0 hr 22 min 42 sec) 
Heartbeat CPU 0 instructions: 430000004 cycles: 234000880 heartbeat IPC: 1.24007 cumulative IPC: 1.25 (Simulation time: 0 hr 23 min 15 sec) 
Heartbeat CPU 0 instructions: 440000002 cycles: 242044910 heartbeat IPC: 1.24316 cumulative IPC: 1.24971 (Simulation time: 0 hr 23 min 48 sec) 
Heartbeat CPU 0 instructions: 450000003 cycles: 250087985 heartbeat IPC: 1.24331 cumulative IPC: 1.24945 (Simulation time: 0 hr 24 min 21 sec) 
Heartbeat CPU 0 instructions: 460000001 cycles: 258176750 heartbeat IPC: 1.23628 cumulative IPC: 1.24894 (Simulation time: 0 hr 24 min 54 sec) 
Heartbeat CPU 0 instructions: 470000000 cycles: 266153634 heartbeat IPC: 1.25362 cumulative IPC: 1.24911 (Simulation time: 0 hr 25 min 26 sec) 
Heartbeat CPU 0 instructions: 480000002 cycles: 274205326 heartbeat IPC: 1.24198 cumulative IPC: 1.24886 (Simulation time: 0 hr 25 min 59 sec) 
Heartbeat CPU 0 instructions: 490000001 cycles: 282058687 heartbeat IPC: 1.27334 cumulative IPC: 1.24968 (Simulation time: 0 hr 26 min 32 sec) 
Heartbeat CPU 0 instructions: 500000002 cycles: 289973480 heartbeat IPC: 1.26346 cumulative IPC: 1.25014 (Simulation time: 0 hr 27 min 5 sec) 
Heartbeat CPU 0 instructions: 510000004 cycles: 297820280 heartbeat IPC: 1.27441 cumulative IPC: 1.25091 (Simulation time: 0 hr 27 min 38 sec) 
Heartbeat CPU 0 instructions: 520000001 cycles: 305692215 heartbeat IPC: 1.27034 cumulative IPC: 1.25151 (Simulation time: 0 hr 28 min 10 sec) 
Heartbeat CPU 0 instructions: 530000003 cycles: 313566115 heartbeat IPC: 1.27002 cumulative IPC: 1.25206 (Simulation time: 0 hr 28 min 43 sec) 
Heartbeat CPU 0 instructions: 540000000 cycles: 321535243 heartbeat IPC: 1.25484 cumulative IPC: 1.25214 (Simulation time: 0 hr 29 min 16 sec) 
Heartbeat CPU 0 instructions: 550000001 cycles: 329421240 heartbeat IPC: 1.26807 cumulative IPC: 1.25259 (Simulation time: 0 hr 29 min 49 sec) 
Heartbeat CPU 0 instructions: 560000003 cycles: 337250948 heartbeat IPC: 1.27719 cumulative IPC: 1.25326 (Simulation time: 0 hr 30 min 23 sec) 
Heartbeat CPU 0 instructions: 570000002 cycles: 344895598 heartbeat IPC: 1.3081 cumulative IPC: 1.25468 (Simulation time: 0 hr 30 min 56 sec) 
Heartbeat CPU 0 instructions: 580000000 cycles: 352613094 heartbeat IPC: 1.29576 cumulative IPC: 1.25573 (Simulation time: 0 hr 31 min 30 sec) 
Heartbeat CPU 0 instructions: 590000000 cycles: 360584948 heartbeat IPC: 1.25441 cumulative IPC: 1.2557 (Simulation time: 0 hr 32 min 4 sec) 
Heartbeat CPU 0 instructions: 600000000 cycles: 368566283 heartbeat IPC: 1.25292 cumulative IPC: 1.25563 (Simulation time: 0 hr 32 min 37 sec) 
Heartbeat CPU 0 instructions: 610000002 cycles: 376559027 heartbeat IPC: 1.25113 cumulative IPC: 1.25552 (Simulation time: 0 hr 33 min 11 sec) 
Heartbeat CPU 0 instructions: 620000003 cycles: 384491217 heartbeat IPC: 1.26069 cumulative IPC: 1.25564 (Simulation time: 0 hr 33 min 44 sec) 
Heartbeat CPU 0 instructions: 630000000 cycles: 392453772 heartbeat IPC: 1.25588 cumulative IPC: 1.25564 (Simulation time: 0 hr 34 min 17 sec) 
Heartbeat CPU 0 instructions: 640000000 cycles: 400350546 heartbeat IPC: 1.26634 cumulative IPC: 1.25589 (Simulation time: 0 hr 34 min 51 sec) 
Heartbeat CPU 0 instructions: 650000000 cycles: 408262508 heartbeat IPC: 1.26391 cumulative IPC: 1.25606 (Simulation time: 0 hr 35 min 25 sec) 
Heartbeat CPU 0 instructions: 660000002 cycles: 416027148 heartbeat IPC: 1.28789 cumulative IPC: 1.25674 (Simulation time: 0 hr 35 min 59 sec) 
Heartbeat CPU 0 instructions: 670000001 cycles: 423700915 heartbeat IPC: 1.30314 cumulative IPC: 1.25769 (Simulation time: 0 hr 36 min 32 sec) 
Heartbeat CPU 0 instructions: 680000004 cycles: 431511111 heartbeat IPC: 1.28038 cumulative IPC: 1.25816 (Simulation time: 0 hr 37 min 6 sec) 
Heartbeat CPU 0 instructions: 690000003 cycles: 439531669 heartbeat IPC: 1.2468 cumulative IPC: 1.25792 (Simulation time: 0 hr 37 min 40 sec) 
Heartbeat CPU 0 instructions: 700000004 cycles: 447575398 heartbeat IPC: 1.2432 cumulative IPC: 1.25762 (Simulation time: 0 hr 38 min 13 sec) 
Heartbeat CPU 0 instructions: 710000004 cycles: 455434455 heartbeat IPC: 1.27242 cumulative IPC: 1.25791 (Simulation time: 0 hr 38 min 47 sec) 
Heartbeat CPU 0 instructions: 720000001 cycles: 463218146 heartbeat IPC: 1.28474 cumulative IPC: 1.25842 (Simulation time: 0 hr 39 min 20 sec) 
Heartbeat CPU 0 instructions: 730000000 cycles: 471095189 heartbeat IPC: 1.26951 cumulative IPC: 1.25862 (Simulation time: 0 hr 39 min 54 sec) 
Heartbeat CPU 0 instructions: 740000000 cycles: 478880786 heartbeat IPC: 1.28442 cumulative IPC: 1.25909 (Simulation time: 0 hr 40 min 27 sec) 
Heartbeat CPU 0 instructions: 750000003 cycles: 486813181 heartbeat IPC: 1.26065 cumulative IPC: 1.25912 (Simulation time: 0 hr 41 min 1 sec) 
Heartbeat CPU 0 instructions: 760000001 cycles: 494768148 heartbeat IPC: 1.25708 cumulative IPC: 1.25908 (Simulation time: 0 hr 41 min 34 sec) 
Heartbeat CPU 0 instructions: 770000001 cycles: 502779350 heartbeat IPC: 1.24825 cumulative IPC: 1.25889 (Simulation time: 0 hr 42 min 8 sec) 
Heartbeat CPU 0 instructions: 780000004 cycles: 510919681 heartbeat IPC: 1.22845 cumulative IPC: 1.25835 (Simulation time: 0 hr 42 min 41 sec) 
Heartbeat CPU 0 instructions: 790000001 cycles: 518949656 heartbeat IPC: 1.24533 cumulative IPC: 1.25813 (Simulation time: 0 hr 43 min 15 sec) 
Heartbeat CPU 0 instructions: 800000002 cycles: 526798490 heartbeat IPC: 1.27407 cumulative IPC: 1.25839 (Simulation time: 0 hr 43 min 49 sec) 
Heartbeat CPU 0 instructions: 810000000 cycles: 534616610 heartbeat IPC: 1.27908 cumulative IPC: 1.25873 (Simulation time: 0 hr 44 min 22 sec) 
Heartbeat CPU 0 instructions: 820000000 cycles: 542335264 heartbeat IPC: 1.29556 cumulative IPC: 1.25931 (Simulation time: 0 hr 44 min 56 sec) 
Heartbeat CPU 0 instructions: 830000000 cycles: 550077152 heartbeat IPC: 1.29167 cumulative IPC: 1.25981 (Simulation time: 0 hr 45 min 30 sec) 
Heartbeat CPU 0 instructions: 840000003 cycles: 557774298 heartbeat IPC: 1.29918 cumulative IPC: 1.2604 (Simulation time: 0 hr 46 min 3 sec) 
Heartbeat CPU 0 instructions: 850000000 cycles: 565636283 heartbeat IPC: 1.27194 cumulative IPC: 1.26058 (Simulation time: 0 hr 46 min 37 sec) 
Heartbeat CPU 0 instructions: 860000001 cycles: 573417539 heartbeat IPC: 1.28514 cumulative IPC: 1.26094 (Simulation time: 0 hr 47 min 11 sec) 
Heartbeat CPU 0 instructions: 870000000 cycles: 581121302 heartbeat IPC: 1.29807 cumulative IPC: 1.26148 (Simulation time: 0 hr 47 min 45 sec) 
Heartbeat CPU 0 instructions: 880000003 cycles: 589017334 heartbeat IPC: 1.26646 cumulative IPC: 1.26156 (Simulation time: 0 hr 48 min 19 sec) 
Heartbeat CPU 0 instructions: 890000003 cycles: 596858226 heartbeat IPC: 1.27537 cumulative IPC: 1.26175 (Simulation time: 0 hr 48 min 52 sec) 
Heartbeat CPU 0 instructions: 900000000 cycles: 604628085 heartbeat IPC: 1.28702 cumulative IPC: 1.26211 (Simulation time: 0 hr 49 min 26 sec) 
Heartbeat CPU 0 instructions: 910000001 cycles: 612326973 heartbeat IPC: 1.29889 cumulative IPC: 1.26261 (Simulation time: 0 hr 50 min 1 sec) 
Heartbeat CPU 0 instructions: 920000004 cycles: 620085245 heartbeat IPC: 1.28895 cumulative IPC: 1.26297 (Simulation time: 0 hr 50 min 35 sec) 
Heartbeat CPU 0 instructions: 930000002 cycles: 627710935 heartbeat IPC: 1.31136 cumulative IPC: 1.26361 (Simulation time: 0 hr 51 min 9 sec) 
Heartbeat CPU 0 instructions: 940000004 cycles: 635387528 heartbeat IPC: 1.30266 cumulative IPC: 1.26412 (Simulation time: 0 hr 51 min 43 sec) 
Heartbeat CPU 0 instructions: 950000000 cycles: 643058225 heartbeat IPC: 1.30366 cumulative IPC: 1.26463 (Simulation time: 0 hr 52 min 16 sec) 
Heartbeat CPU 0 instructions: 960000001 cycles: 650928422 heartbeat IPC: 1.27062 cumulative IPC: 1.26471 (Simulation time: 0 hr 52 min 50 sec) 
Heartbeat CPU 0 instructions: 970000002 cycles: 658672312 heartbeat IPC: 1.29134 cumulative IPC: 1.26505 (Simulation time: 0 hr 53 min 24 sec) 
Heartbeat CPU 0 instructions: 980000000 cycles: 666448778 heartbeat IPC: 1.28593 cumulative IPC: 1.26531 (Simulation time: 0 hr 53 min 57 sec) 
Heartbeat CPU 0 instructions: 990000003 cycles: 674116537 heartbeat IPC: 1.30416 cumulative IPC: 1.26579 (Simulation time: 0 hr 54 min 31 sec) 
Heartbeat CPU 0 instructions: 1000000003 cycles: 682074297 heartbeat IPC: 1.25664 cumulative IPC: 1.26567 (Simulation time: 0 hr 55 min 6 sec) 
Heartbeat CPU 0 instructions: 1010000001 cycles: 689651158 heartbeat IPC: 1.31981 cumulative IPC: 1.26632 (Simulation time: 0 hr 55 min 40 sec) 
Heartbeat CPU 0 instructions: 1020000002 cycles: 697311128 heartbeat IPC: 1.30549 cumulative IPC: 1.26678 (Simulation time: 0 hr 56 min 14 sec) 
Heartbeat CPU 0 instructions: 1030000000 cycles: 705177602 heartbeat IPC: 1.27122 cumulative IPC: 1.26683 (Simulation time: 0 hr 56 min 48 sec) 
Heartbeat CPU 0 instructions: 1040000001 cycles: 712973330 heartbeat IPC: 1.28275 cumulative IPC: 1.26702 (Simulation time: 0 hr 57 min 22 sec) 
Heartbeat CPU 0 instructions: 1050000001 cycles: 720745263 heartbeat IPC: 1.28668 cumulative IPC: 1.26725 (Simulation time: 0 hr 57 min 56 sec) 
Heartbeat CPU 0 instructions: 1060000001 cycles: 728663866 heartbeat IPC: 1.26285 cumulative IPC: 1.2672 (Simulation time: 0 hr 58 min 30 sec) 
Heartbeat CPU 0 instructions: 1070000002 cycles: 736515764 heartbeat IPC: 1.27358 cumulative IPC: 1.26727 (Simulation time: 0 hr 59 min 3 sec) 
Heartbeat CPU 0 instructions: 1080000000 cycles: 744316341 heartbeat IPC: 1.28196 cumulative IPC: 1.26743 (Simulation time: 0 hr 59 min 37 sec) 
Heartbeat CPU 0 instructions: 1090000002 cycles: 752233954 heartbeat IPC: 1.26301 cumulative IPC: 1.26738 (Simulation time: 1 hr 0 min 11 sec) 
Heartbeat CPU 0 instructions: 1100000001 cycles: 759963742 heartbeat IPC: 1.2937 cumulative IPC: 1.26767 (Simulation time: 1 hr 0 min 45 sec) 
Heartbeat CPU 0 instructions: 1110000003 cycles: 767960116 heartbeat IPC: 1.25057 cumulative IPC: 1.26748 (Simulation time: 1 hr 1 min 19 sec) 
Heartbeat CPU 0 instructions: 1120000000 cycles: 775868999 heartbeat IPC: 1.2644 cumulative IPC: 1.26745 (Simulation time: 1 hr 1 min 53 sec) 
Heartbeat CPU 0 instructions: 1130000001 cycles: 783715067 heartbeat IPC: 1.27452 cumulative IPC: 1.26752 (Simulation time: 1 hr 2 min 27 sec) 
Heartbeat CPU 0 instructions: 1140000000 cycles: 791515315 heartbeat IPC: 1.28201 cumulative IPC: 1.26767 (Simulation time: 1 hr 3 min 1 sec) 
Heartbeat CPU 0 instructions: 1150000000 cycles: 799402037 heartbeat IPC: 1.26795 cumulative IPC: 1.26768 (Simulation time: 1 hr 3 min 35 sec) 
Heartbeat CPU 0 instructions: 1160000000 cycles: 807307047 heartbeat IPC: 1.26502 cumulative IPC: 1.26765 (Simulation time: 1 hr 4 min 10 sec) 
Heartbeat CPU 0 instructions: 1170000002 cycles: 815187343 heartbeat IPC: 1.26899 cumulative IPC: 1.26766 (Simulation time: 1 hr 4 min 44 sec) 
Heartbeat CPU 0 instructions: 1180000001 cycles: 823130323 heartbeat IPC: 1.25897 cumulative IPC: 1.26757 (Simulation time: 1 hr 5 min 18 sec) 
Heartbeat CPU 0 instructions: 1190000000 cycles: 830961755 heartbeat IPC: 1.27691 cumulative IPC: 1.26767 (Simulation time: 1 hr 5 min 52 sec) 
Heartbeat CPU 0 instructions: 1200000000 cycles: 838712642 heartbeat IPC: 1.29017 cumulative IPC: 1.26789 (Simulation time: 1 hr 6 min 27 sec) 
Finished CPU 0 instructions: 1000000002 cycles: 788712443 cumulative IPC: 1.26789 (Simulation time: 1 hr 6 min 27 sec) 

ChampSim completed all CPUs

Region of Interest Statistics

CPU 0 cumulative IPC: 1.26789 instructions: 1000000002 cycles: 788712443
cpu0_DTLB TOTAL     ACCESS:  186573223  HIT:  186306594  MISS:     266629
cpu0_DTLB LOAD      ACCESS:  130161042  HIT:  129905385  MISS:     255657
cpu0_DTLB RFO       ACCESS:   56412181  HIT:   56401209  MISS:      10972
cpu0_DTLB PREFETCH  ACCESS:          0  HIT:          0  MISS:          0
cpu0_DTLB WRITEBACK ACCESS:          0  HIT:          0  MISS:          0
cpu0_DTLB TRANSLATION ACCESS:          0  HIT:          0  MISS:          0
cpu0_DTLB PREFETCH  REQUESTED:          0  ISSUED:          0  USEFUL:          0  USELESS:          0
cpu0_DTLB AVERAGE MISS LATENCY: 128.331 cycles
cpu0_ITLB TOTAL     ACCESS:   77435052  HIT:   77435052  MISS:          0
cpu0_ITLB LOAD      ACCESS:   77435052  HIT:   77435052  MISS:          0
cpu0_ITLB RFO       ACCESS:          0  HIT:          0  MISS:          0
cpu0_ITLB PREFETCH  ACCESS:          0  HIT:          0  MISS:          0
cpu0_ITLB WRITEBACK ACCESS:          0  HIT:          0  MISS:          0
cpu0_ITLB TRANSLATION ACCESS:          0  HIT:          0  MISS:          0
cpu0_ITLB PREFETCH  REQUESTED:          0  ISSUED:          0  USEFUL:          0  USELESS:          0
cpu0_ITLB AVERAGE MISS LATENCY: -nan cycles
cpu0_L1I TOTAL     ACCESS:  106808699  HIT:  106328735  MISS:     479964
cpu0_L1I LOAD      ACCESS:  106808699  HIT:  106328735  MISS:     479964
cpu0_L1I RFO       ACCESS:          0  HIT:          0  MISS:          0
cpu0_L1I PREFETCH  ACCESS:          0  HIT:          0  MISS:          0
cpu0_L1I WRITEBACK ACCESS:          0  HIT:          0  MISS:          0
cpu0_L1I TRANSLATION ACCESS:          0  HIT:          0  MISS:          0
cpu0_L1I PREFETCH  REQUESTED:          0  ISSUED:          0  USEFUL:          0  USELESS:          0
cpu0_L1I AVERAGE MISS LATENCY: 11.2873 cycles
cpu0_STLB TOTAL     ACCESS:     266629  HIT:     105897  MISS:     160732
cpu0_STLB LOAD      ACCESS:     255657  HIT:      94976  MISS:     160681
cpu0_STLB RFO       ACCESS:      10972  HIT:      10921  MISS:         51
cpu0_STLB PREFETCH  ACCESS:          0  HIT:          0  MISS:          0
cpu0_STLB WRITEBACK ACCESS:          0  HIT:          0  MISS:          0
cpu0_STLB TRANSLATION ACCESS:          0  HIT:          0  MISS:          0
cpu0_STLB PREFETCH  REQUESTED:          0  ISSUED:          0  USEFUL:          0  USELESS:          0
cpu0_STLB AVERAGE MISS LATENCY: 194.629 cycles
cpu0_L1D TOTAL     ACCESS:  267747890  HIT:  266898541  MISS:     849349
cpu0_L1D LOAD      ACCESS:  151354969  HIT:  150840824  MISS:     514145
cpu0_L1D RFO       ACCESS:  116233344  HIT:  116032456  MISS:     200888
cpu0_L1D PREFETCH  ACCESS:          0  HIT:          0  MISS:          0
cpu0_L1D WRITEBACK ACCESS:          0  HIT:          0  MISS:          0
cpu0_L1D TRANSLATION ACCESS:     159577  HIT:      25261  MISS:     134316
cpu0_L1D PREFETCH  REQUESTED:          0  ISSUED:          0  USEFUL:          0  USELESS:          0
cpu0_L1D AVERAGE MISS LATENCY: 68.8618 cycles
cpu0_L2C TOTAL     ACCESS:    1953790  HIT:    1668243  MISS:     285547
cpu0_L2C LOAD      ACCESS:     994072  HIT:     717596  MISS:     276476
cpu0_L2C RFO       ACCESS:     200884  HIT:     193032  MISS:       7852
cpu0_L2C PREFETCH  ACCESS:     197346  HIT:     197283  MISS:         63
cpu0_L2C WRITEBACK ACCESS:     427172  HIT:     426701  MISS:        471
cpu0_L2C TRANSLATION ACCESS:     134316  HIT:     133631  MISS:        685
cpu0_L2C PREFETCH  REQUESTED:     276068  ISSUED:     273020  USEFUL:         18  USELESS:         40
cpu0_L2C AVERAGE MISS LATENCY: 172.524 cycles
LLC TOTAL     ACCESS:     551798  HIT:     251936  MISS:     299862
LLC LOAD      ACCESS:     276476  HIT:      16648  MISS:     259828
LLC RFO       ACCESS:       7852  HIT:       5345  MISS:       2507
LLC PREFETCH  ACCESS:      69747  HIT:      34594  MISS:      35153
LLC WRITEBACK ACCESS:     197038  HIT:     195174  MISS:       1864
LLC TRANSLATION ACCESS:        685  HIT:        175  MISS:        510
LLC PREFETCH  REQUESTED:          0  ISSUED:          0  USEFUL:          0  USELESS:          0
LLC AVERAGE MISS LATENCY: 167.086 cycles
Printing the final status 

DRAM Statistics
 CHANNEL 0
 RQ ROW_BUFFER_HIT:      14749  ROW_BUFFER_MISS:     283249
 DBUS AVG_CONGESTED_CYCLE:    3.85551
 WQ ROW_BUFFER_HIT:       3242  ROW_BUFFER_MISS:     182046  FULL:          0


CPU 0 Branch Prediction Accuracy: 90.3883% MPKI: 14.2102 Average ROB Occupancy at Mispredict: 33.7719
Branch type MPKI
BRANCH_DIRECT_JUMP: 2.4e-05
BRANCH_INDIRECT: 0.001995
BRANCH_CONDITIONAL: 14.2082
BRANCH_DIRECT_CALL: 3e-06
BRANCH_INDIRECT_CALL: 0
BRANCH_RETURN: 4e-06

***************** Done with 631.deepsjeng_s-928B.champsimtrace.xz using ppf-spp-dev, on Thu Apr 14 14:14:32 CDT 2022 ******************
