Started running file 602.gcc_s-734B.champsimtrace.xz at time Thu Apr 14 15:35:51 CDT 2022 with prefetcher spp-dev

*** ChampSim Multicore Out-of-Order Simulator ***

Warmup Instructions: 200000000
Simulation Instructions: 1000000000
Number of CPUs: 1
Off-chip DRAM Size: 4 GiB Channels: 1 Width: 64-bit Data Rate: 3200 MT/s

VirtualMemory physical capacity: 8588881920 num_ppages: 2096895
VirtualMemory page size: 4096 log2_page_size: 12

CPU 0 runs /home/faculty/p/pgratz/dpc3_traces/602.gcc_s-734B.champsimtrace.xz
CPU 0 Bimodal branch predictor
Basic BTB sets: 1024 ways: 8 indirect buffer size: 4096 RAS size: 64
SPP-DEV original prefetcher
Heartbeat CPU 0 instructions: 10000002 cycles: 2500071 heartbeat IPC: 3.99989 cumulative IPC: 3.99989 (Simulation time: 0 hr 0 min 30 sec) 
Heartbeat CPU 0 instructions: 20000001 cycles: 5000458 heartbeat IPC: 3.99938 cumulative IPC: 3.99963 (Simulation time: 0 hr 0 min 59 sec) 
Heartbeat CPU 0 instructions: 30000001 cycles: 7500458 heartbeat IPC: 4 cumulative IPC: 3.99976 (Simulation time: 0 hr 1 min 28 sec) 
Heartbeat CPU 0 instructions: 40000000 cycles: 10000462 heartbeat IPC: 3.99999 cumulative IPC: 3.99982 (Simulation time: 0 hr 1 min 57 sec) 
Heartbeat CPU 0 instructions: 50000000 cycles: 12500462 heartbeat IPC: 4 cumulative IPC: 3.99985 (Simulation time: 0 hr 2 min 27 sec) 
Heartbeat CPU 0 instructions: 60000000 cycles: 15000462 heartbeat IPC: 4 cumulative IPC: 3.99988 (Simulation time: 0 hr 2 min 56 sec) 
Heartbeat CPU 0 instructions: 70000001 cycles: 17506792 heartbeat IPC: 3.9899 cumulative IPC: 3.99845 (Simulation time: 0 hr 3 min 25 sec) 
Heartbeat CPU 0 instructions: 80000001 cycles: 20006792 heartbeat IPC: 4 cumulative IPC: 3.99864 (Simulation time: 0 hr 3 min 54 sec) 
Heartbeat CPU 0 instructions: 90000001 cycles: 22506792 heartbeat IPC: 4 cumulative IPC: 3.99879 (Simulation time: 0 hr 4 min 23 sec) 
Heartbeat CPU 0 instructions: 100000002 cycles: 25246976 heartbeat IPC: 3.64939 cumulative IPC: 3.96087 (Simulation time: 0 hr 4 min 57 sec) 
Heartbeat CPU 0 instructions: 110000002 cycles: 27746976 heartbeat IPC: 4 cumulative IPC: 3.9644 (Simulation time: 0 hr 5 min 26 sec) 
Heartbeat CPU 0 instructions: 120000002 cycles: 30246976 heartbeat IPC: 4 cumulative IPC: 3.96734 (Simulation time: 0 hr 5 min 55 sec) 
Heartbeat CPU 0 instructions: 130000002 cycles: 32803639 heartbeat IPC: 3.91135 cumulative IPC: 3.96298 (Simulation time: 0 hr 6 min 25 sec) 
Heartbeat CPU 0 instructions: 140000002 cycles: 35303639 heartbeat IPC: 4 cumulative IPC: 3.9656 (Simulation time: 0 hr 6 min 54 sec) 
Heartbeat CPU 0 instructions: 150000003 cycles: 37803659 heartbeat IPC: 3.99997 cumulative IPC: 3.96787 (Simulation time: 0 hr 7 min 23 sec) 
Heartbeat CPU 0 instructions: 160000000 cycles: 40306672 heartbeat IPC: 3.99518 cumulative IPC: 3.96957 (Simulation time: 0 hr 7 min 52 sec) 
Heartbeat CPU 0 instructions: 170000000 cycles: 42806672 heartbeat IPC: 4 cumulative IPC: 3.97134 (Simulation time: 0 hr 8 min 21 sec) 
Heartbeat CPU 0 instructions: 180000000 cycles: 45306672 heartbeat IPC: 4 cumulative IPC: 3.97292 (Simulation time: 0 hr 8 min 50 sec) 
Heartbeat CPU 0 instructions: 190000000 cycles: 47806672 heartbeat IPC: 4 cumulative IPC: 3.97434 (Simulation time: 0 hr 9 min 22 sec) 
Heartbeat CPU 0 instructions: 200000000 cycles: 50307174 heartbeat IPC: 3.9992 cumulative IPC: 3.97558 (Simulation time: 0 hr 9 min 51 sec) 

Warmup complete CPU 0 instructions: 200000004 cycles: 50307175 (Simulation time: 0 hr 9 min 51 sec) 

Heartbeat CPU 0 instructions: 210000000 cycles: 60666513 heartbeat IPC: 0.965313 cumulative IPC: 0.965312 (Simulation time: 0 hr 10 min 26 sec) 
Heartbeat CPU 0 instructions: 220000001 cycles: 71328747 heartbeat IPC: 0.93789 cumulative IPC: 0.951403 (Simulation time: 0 hr 11 min 1 sec) 
Heartbeat CPU 0 instructions: 230000002 cycles: 81684958 heartbeat IPC: 0.965604 cumulative IPC: 0.95609 (Simulation time: 0 hr 11 min 36 sec) 
Heartbeat CPU 0 instructions: 240000001 cycles: 92127621 heartbeat IPC: 0.95761 cumulative IPC: 0.95647 (Simulation time: 0 hr 12 min 11 sec) 
Heartbeat CPU 0 instructions: 250000000 cycles: 103144711 heartbeat IPC: 0.907681 cumulative IPC: 0.946297 (Simulation time: 0 hr 12 min 47 sec) 
Heartbeat CPU 0 instructions: 260000000 cycles: 113510548 heartbeat IPC: 0.964707 cumulative IPC: 0.949316 (Simulation time: 0 hr 13 min 21 sec) 
Heartbeat CPU 0 instructions: 270000000 cycles: 124010364 heartbeat IPC: 0.952398 cumulative IPC: 0.949755 (Simulation time: 0 hr 13 min 57 sec) 
Heartbeat CPU 0 instructions: 280000001 cycles: 134370897 heartbeat IPC: 0.965201 cumulative IPC: 0.951659 (Simulation time: 0 hr 14 min 32 sec) 
Heartbeat CPU 0 instructions: 290000000 cycles: 144781692 heartbeat IPC: 0.960541 cumulative IPC: 0.952638 (Simulation time: 0 hr 15 min 7 sec) 
Heartbeat CPU 0 instructions: 300000002 cycles: 155371759 heartbeat IPC: 0.944281 cumulative IPC: 0.951796 (Simulation time: 0 hr 15 min 42 sec) 
Heartbeat CPU 0 instructions: 310000003 cycles: 165736023 heartbeat IPC: 0.964854 cumulative IPC: 0.952968 (Simulation time: 0 hr 16 min 17 sec) 
Heartbeat CPU 0 instructions: 320000000 cycles: 176231528 heartbeat IPC: 0.952789 cumulative IPC: 0.952953 (Simulation time: 0 hr 16 min 52 sec) 
Heartbeat CPU 0 instructions: 330000003 cycles: 186931113 heartbeat IPC: 0.934616 cumulative IPC: 0.951517 (Simulation time: 0 hr 17 min 27 sec) 
Heartbeat CPU 0 instructions: 340000004 cycles: 197269440 heartbeat IPC: 0.967275 cumulative IPC: 0.952626 (Simulation time: 0 hr 18 min 2 sec) 
Heartbeat CPU 0 instructions: 350000002 cycles: 207789887 heartbeat IPC: 0.95053 cumulative IPC: 0.952486 (Simulation time: 0 hr 18 min 37 sec) 
Heartbeat CPU 0 instructions: 360000001 cycles: 218399793 heartbeat IPC: 0.942515 cumulative IPC: 0.951856 (Simulation time: 0 hr 19 min 12 sec) 
Heartbeat CPU 0 instructions: 370000001 cycles: 228752675 heartbeat IPC: 0.965915 cumulative IPC: 0.952672 (Simulation time: 0 hr 19 min 47 sec) 
Heartbeat CPU 0 instructions: 380000000 cycles: 239270057 heartbeat IPC: 0.950807 cumulative IPC: 0.952568 (Simulation time: 0 hr 20 min 21 sec) 
Heartbeat CPU 0 instructions: 390000000 cycles: 249803414 heartbeat IPC: 0.949365 cumulative IPC: 0.952399 (Simulation time: 0 hr 20 min 57 sec) 
Heartbeat CPU 0 instructions: 400000003 cycles: 260136678 heartbeat IPC: 0.967749 cumulative IPC: 0.953155 (Simulation time: 0 hr 21 min 32 sec) 
Heartbeat CPU 0 instructions: 410000001 cycles: 270582591 heartbeat IPC: 0.957312 cumulative IPC: 0.953352 (Simulation time: 0 hr 22 min 7 sec) 
Heartbeat CPU 0 instructions: 420000001 cycles: 282418191 heartbeat IPC: 0.844909 cumulative IPC: 0.947822 (Simulation time: 0 hr 22 min 44 sec) 
Heartbeat CPU 0 instructions: 430000002 cycles: 292784220 heartbeat IPC: 0.96469 cumulative IPC: 0.948543 (Simulation time: 0 hr 23 min 19 sec) 
Heartbeat CPU 0 instructions: 440000001 cycles: 303318342 heartbeat IPC: 0.949296 cumulative IPC: 0.948575 (Simulation time: 0 hr 23 min 54 sec) 
Heartbeat CPU 0 instructions: 450000000 cycles: 313954573 heartbeat IPC: 0.940183 cumulative IPC: 0.948236 (Simulation time: 0 hr 24 min 29 sec) 
Heartbeat CPU 0 instructions: 460000000 cycles: 324307952 heartbeat IPC: 0.965868 cumulative IPC: 0.948902 (Simulation time: 0 hr 25 min 4 sec) 
Heartbeat CPU 0 instructions: 470000001 cycles: 334971040 heartbeat IPC: 0.937815 cumulative IPC: 0.948487 (Simulation time: 0 hr 25 min 39 sec) 
Heartbeat CPU 0 instructions: 480000001 cycles: 346345475 heartbeat IPC: 0.879165 cumulative IPC: 0.945824 (Simulation time: 0 hr 26 min 16 sec) 
Heartbeat CPU 0 instructions: 490000000 cycles: 356723420 heartbeat IPC: 0.963582 cumulative IPC: 0.946425 (Simulation time: 0 hr 26 min 51 sec) 
Heartbeat CPU 0 instructions: 500000002 cycles: 367362089 heartbeat IPC: 0.939967 cumulative IPC: 0.946208 (Simulation time: 0 hr 27 min 26 sec) 
Heartbeat CPU 0 instructions: 510000001 cycles: 377685558 heartbeat IPC: 0.968667 cumulative IPC: 0.946917 (Simulation time: 0 hr 28 min 1 sec) 
Heartbeat CPU 0 instructions: 520000002 cycles: 388289000 heartbeat IPC: 0.94309 cumulative IPC: 0.946796 (Simulation time: 0 hr 28 min 36 sec) 
Heartbeat CPU 0 instructions: 530000001 cycles: 398682916 heartbeat IPC: 0.962101 cumulative IPC: 0.947253 (Simulation time: 0 hr 29 min 12 sec) 
Heartbeat CPU 0 instructions: 540000004 cycles: 409021833 heartbeat IPC: 0.96722 cumulative IPC: 0.947829 (Simulation time: 0 hr 29 min 47 sec) 
Heartbeat CPU 0 instructions: 550000000 cycles: 419485089 heartbeat IPC: 0.955725 cumulative IPC: 0.948052 (Simulation time: 0 hr 30 min 22 sec) 
Heartbeat CPU 0 instructions: 560000000 cycles: 431508018 heartbeat IPC: 0.831744 cumulative IPC: 0.944384 (Simulation time: 0 hr 30 min 59 sec) 
Heartbeat CPU 0 instructions: 570000004 cycles: 442226392 heartbeat IPC: 0.932978 cumulative IPC: 0.944072 (Simulation time: 0 hr 31 min 35 sec) 
Heartbeat CPU 0 instructions: 580000000 cycles: 453132158 heartbeat IPC: 0.916946 cumulative IPC: 0.943338 (Simulation time: 0 hr 32 min 11 sec) 
Heartbeat CPU 0 instructions: 590000000 cycles: 463473273 heartbeat IPC: 0.967014 cumulative IPC: 0.94393 (Simulation time: 0 hr 32 min 46 sec) 
Heartbeat CPU 0 instructions: 600000001 cycles: 473866035 heartbeat IPC: 0.962208 cumulative IPC: 0.944379 (Simulation time: 0 hr 33 min 20 sec) 
Heartbeat CPU 0 instructions: 610000003 cycles: 484484649 heartbeat IPC: 0.941743 cumulative IPC: 0.944314 (Simulation time: 0 hr 33 min 55 sec) 
Heartbeat CPU 0 instructions: 620000000 cycles: 494827540 heartbeat IPC: 0.966847 cumulative IPC: 0.944839 (Simulation time: 0 hr 34 min 30 sec) 
Heartbeat CPU 0 instructions: 630000004 cycles: 505211171 heartbeat IPC: 0.963055 cumulative IPC: 0.945254 (Simulation time: 0 hr 35 min 5 sec) 
Heartbeat CPU 0 instructions: 640000003 cycles: 515782773 heartbeat IPC: 0.94593 cumulative IPC: 0.94527 (Simulation time: 0 hr 35 min 40 sec) 
Heartbeat CPU 0 instructions: 650000002 cycles: 526118047 heartbeat IPC: 0.96756 cumulative IPC: 0.945754 (Simulation time: 0 hr 36 min 15 sec) 
Heartbeat CPU 0 instructions: 660000003 cycles: 536564383 heartbeat IPC: 0.957274 cumulative IPC: 0.946001 (Simulation time: 0 hr 36 min 50 sec) 
Heartbeat CPU 0 instructions: 670000003 cycles: 547152183 heartbeat IPC: 0.944483 cumulative IPC: 0.945969 (Simulation time: 0 hr 37 min 25 sec) 
Heartbeat CPU 0 instructions: 680000000 cycles: 557510263 heartbeat IPC: 0.96543 cumulative IPC: 0.946366 (Simulation time: 0 hr 38 min 0 sec) 
Heartbeat CPU 0 instructions: 690000001 cycles: 567978315 heartbeat IPC: 0.955288 cumulative IPC: 0.946547 (Simulation time: 0 hr 38 min 35 sec) 
Heartbeat CPU 0 instructions: 700000001 cycles: 578579975 heartbeat IPC: 0.943249 cumulative IPC: 0.946481 (Simulation time: 0 hr 39 min 10 sec) 
Heartbeat CPU 0 instructions: 710000001 cycles: 588931672 heartbeat IPC: 0.966025 cumulative IPC: 0.946856 (Simulation time: 0 hr 39 min 45 sec) 
Heartbeat CPU 0 instructions: 720000000 cycles: 599461182 heartbeat IPC: 0.949712 cumulative IPC: 0.946911 (Simulation time: 0 hr 40 min 20 sec) 
Heartbeat CPU 0 instructions: 730000004 cycles: 610262278 heartbeat IPC: 0.925832 cumulative IPC: 0.946504 (Simulation time: 0 hr 40 min 56 sec) 
Heartbeat CPU 0 instructions: 740000004 cycles: 621007026 heartbeat IPC: 0.930687 cumulative IPC: 0.946207 (Simulation time: 0 hr 41 min 32 sec) 
Heartbeat CPU 0 instructions: 750000001 cycles: 632008580 heartbeat IPC: 0.908962 cumulative IPC: 0.945502 (Simulation time: 0 hr 42 min 7 sec) 
Heartbeat CPU 0 instructions: 760000002 cycles: 647230500 heartbeat IPC: 0.656947 cumulative IPC: 0.938144 (Simulation time: 0 hr 42 min 47 sec) 
Heartbeat CPU 0 instructions: 770000000 cycles: 659570328 heartbeat IPC: 0.810384 cumulative IPC: 0.935556 (Simulation time: 0 hr 43 min 24 sec) 
Heartbeat CPU 0 instructions: 780000000 cycles: 669934091 heartbeat IPC: 0.9649 cumulative IPC: 0.936047 (Simulation time: 0 hr 44 min 0 sec) 
Heartbeat CPU 0 instructions: 790000004 cycles: 680549179 heartbeat IPC: 0.942056 cumulative IPC: 0.936148 (Simulation time: 0 hr 44 min 35 sec) 
Heartbeat CPU 0 instructions: 800000001 cycles: 690997839 heartbeat IPC: 0.95706 cumulative IPC: 0.936489 (Simulation time: 0 hr 45 min 10 sec) 
Heartbeat CPU 0 instructions: 810000000 cycles: 701361869 heartbeat IPC: 0.964876 cumulative IPC: 0.936941 (Simulation time: 0 hr 45 min 45 sec) 
Heartbeat CPU 0 instructions: 820000000 cycles: 712129147 heartbeat IPC: 0.92874 cumulative IPC: 0.936808 (Simulation time: 0 hr 46 min 21 sec) 
Heartbeat CPU 0 instructions: 830000002 cycles: 722829130 heartbeat IPC: 0.934581 cumulative IPC: 0.936772 (Simulation time: 0 hr 46 min 56 sec) 
Heartbeat CPU 0 instructions: 840000002 cycles: 733582082 heartbeat IPC: 0.929977 cumulative IPC: 0.936665 (Simulation time: 0 hr 47 min 32 sec) 
Heartbeat CPU 0 instructions: 850000004 cycles: 744252871 heartbeat IPC: 0.937138 cumulative IPC: 0.936673 (Simulation time: 0 hr 48 min 8 sec) 
Heartbeat CPU 0 instructions: 860000004 cycles: 754585296 heartbeat IPC: 0.967827 cumulative IPC: 0.93713 (Simulation time: 0 hr 48 min 43 sec) 
Heartbeat CPU 0 instructions: 870000000 cycles: 765028793 heartbeat IPC: 0.957533 cumulative IPC: 0.937428 (Simulation time: 0 hr 49 min 18 sec) 
Heartbeat CPU 0 instructions: 880000003 cycles: 775539277 heartbeat IPC: 0.951431 cumulative IPC: 0.937631 (Simulation time: 0 hr 49 min 54 sec) 
Heartbeat CPU 0 instructions: 890000003 cycles: 785904756 heartbeat IPC: 0.964741 cumulative IPC: 0.938013 (Simulation time: 0 hr 50 min 29 sec) 
Heartbeat CPU 0 instructions: 900000000 cycles: 796508481 heartbeat IPC: 0.943065 cumulative IPC: 0.938085 (Simulation time: 0 hr 51 min 4 sec) 
Heartbeat CPU 0 instructions: 910000000 cycles: 806976924 heartbeat IPC: 0.955252 cumulative IPC: 0.938322 (Simulation time: 0 hr 51 min 39 sec) 
Heartbeat CPU 0 instructions: 920000003 cycles: 817334414 heartbeat IPC: 0.965485 cumulative IPC: 0.938689 (Simulation time: 0 hr 52 min 14 sec) 
Heartbeat CPU 0 instructions: 930000000 cycles: 827901408 heartbeat IPC: 0.946343 cumulative IPC: 0.938793 (Simulation time: 0 hr 52 min 49 sec) 
Heartbeat CPU 0 instructions: 940000003 cycles: 838338414 heartbeat IPC: 0.958129 cumulative IPC: 0.939049 (Simulation time: 0 hr 53 min 25 sec) 
Heartbeat CPU 0 instructions: 950000001 cycles: 848702765 heartbeat IPC: 0.964846 cumulative IPC: 0.939384 (Simulation time: 0 hr 54 min 0 sec) 
Heartbeat CPU 0 instructions: 960000003 cycles: 859325064 heartbeat IPC: 0.941416 cumulative IPC: 0.939411 (Simulation time: 0 hr 54 min 35 sec) 
Heartbeat CPU 0 instructions: 970000002 cycles: 869820554 heartbeat IPC: 0.95279 cumulative IPC: 0.939582 (Simulation time: 0 hr 55 min 10 sec) 
Heartbeat CPU 0 instructions: 980000000 cycles: 880177573 heartbeat IPC: 0.965529 cumulative IPC: 0.939906 (Simulation time: 0 hr 55 min 45 sec) 
Heartbeat CPU 0 instructions: 990000000 cycles: 890751499 heartbeat IPC: 0.945723 cumulative IPC: 0.939979 (Simulation time: 0 hr 56 min 21 sec) 
Heartbeat CPU 0 instructions: 1000000001 cycles: 901124662 heartbeat IPC: 0.964026 cumulative IPC: 0.940272 (Simulation time: 0 hr 56 min 56 sec) 
Heartbeat CPU 0 instructions: 1010000002 cycles: 911479370 heartbeat IPC: 0.965744 cumulative IPC: 0.940578 (Simulation time: 0 hr 57 min 31 sec) 
Heartbeat CPU 0 instructions: 1020000000 cycles: 922063639 heartbeat IPC: 0.944798 cumulative IPC: 0.94063 (Simulation time: 0 hr 58 min 7 sec) 
Heartbeat CPU 0 instructions: 1030000004 cycles: 932430418 heartbeat IPC: 0.96462 cumulative IPC: 0.940912 (Simulation time: 0 hr 58 min 42 sec) 
Heartbeat CPU 0 instructions: 1040000004 cycles: 942814933 heartbeat IPC: 0.962972 cumulative IPC: 0.941168 (Simulation time: 0 hr 59 min 17 sec) 
Heartbeat CPU 0 instructions: 1050000000 cycles: 953464484 heartbeat IPC: 0.939006 cumulative IPC: 0.941143 (Simulation time: 0 hr 59 min 52 sec) 
Heartbeat CPU 0 instructions: 1060000001 cycles: 963824324 heartbeat IPC: 0.965266 cumulative IPC: 0.941416 (Simulation time: 1 hr 0 min 27 sec) 
Heartbeat CPU 0 instructions: 1070000004 cycles: 974211388 heartbeat IPC: 0.962736 cumulative IPC: 0.941656 (Simulation time: 1 hr 1 min 2 sec) 
Heartbeat CPU 0 instructions: 1080000001 cycles: 984880425 heartbeat IPC: 0.937291 cumulative IPC: 0.941606 (Simulation time: 1 hr 1 min 38 sec) 
Heartbeat CPU 0 instructions: 1090000000 cycles: 995240591 heartbeat IPC: 0.965235 cumulative IPC: 0.941865 (Simulation time: 1 hr 2 min 13 sec) 
Heartbeat CPU 0 instructions: 1100000003 cycles: 1005618086 heartbeat IPC: 0.963624 cumulative IPC: 0.942102 (Simulation time: 1 hr 2 min 47 sec) 
Heartbeat CPU 0 instructions: 1110000000 cycles: 1016241256 heartbeat IPC: 0.941338 cumulative IPC: 0.942093 (Simulation time: 1 hr 3 min 23 sec) 
Heartbeat CPU 0 instructions: 1120000004 cycles: 1026584544 heartbeat IPC: 0.966811 cumulative IPC: 0.942355 (Simulation time: 1 hr 3 min 58 sec) 
Heartbeat CPU 0 instructions: 1130000000 cycles: 1036996930 heartbeat IPC: 0.960394 cumulative IPC: 0.942546 (Simulation time: 1 hr 4 min 33 sec) 
Heartbeat CPU 0 instructions: 1140000003 cycles: 1047570638 heartbeat IPC: 0.945742 cumulative IPC: 0.942579 (Simulation time: 1 hr 5 min 9 sec) 
Heartbeat CPU 0 instructions: 1150000004 cycles: 1057911353 heartbeat IPC: 0.967051 cumulative IPC: 0.942831 (Simulation time: 1 hr 5 min 44 sec) 
Heartbeat CPU 0 instructions: 1160000001 cycles: 1068313735 heartbeat IPC: 0.961318 cumulative IPC: 0.943019 (Simulation time: 1 hr 6 min 19 sec) 
Heartbeat CPU 0 instructions: 1170000001 cycles: 1078889403 heartbeat IPC: 0.945567 cumulative IPC: 0.943046 (Simulation time: 1 hr 6 min 54 sec) 
Heartbeat CPU 0 instructions: 1180000001 cycles: 1089227181 heartbeat IPC: 0.967326 cumulative IPC: 0.943287 (Simulation time: 1 hr 7 min 29 sec) 
Heartbeat CPU 0 instructions: 1190000001 cycles: 1099724765 heartbeat IPC: 0.9526 cumulative IPC: 0.94338 (Simulation time: 1 hr 8 min 4 sec) 
Heartbeat CPU 0 instructions: 1200000001 cycles: 1110275211 heartbeat IPC: 0.947827 cumulative IPC: 0.943425 (Simulation time: 1 hr 8 min 40 sec) 
Finished CPU 0 instructions: 1000000002 cycles: 1059968037 cumulative IPC: 0.943425 (Simulation time: 1 hr 8 min 40 sec) 

ChampSim completed all CPUs

Region of Interest Statistics

CPU 0 cumulative IPC: 0.943425 instructions: 1000000002 cycles: 1059968037
cpu0_DTLB TOTAL     ACCESS:  186259325  HIT:  185815299  MISS:     444026
cpu0_DTLB LOAD      ACCESS:  148414021  HIT:  147971100  MISS:     442921
cpu0_DTLB RFO       ACCESS:   37845304  HIT:   37844199  MISS:       1105
cpu0_DTLB PREFETCH  ACCESS:          0  HIT:          0  MISS:          0
cpu0_DTLB WRITEBACK ACCESS:          0  HIT:          0  MISS:          0
cpu0_DTLB TRANSLATION ACCESS:          0  HIT:          0  MISS:          0
cpu0_DTLB PREFETCH  REQUESTED:          0  ISSUED:          0  USEFUL:          0  USELESS:          0
cpu0_DTLB AVERAGE MISS LATENCY: 16.1151 cycles
cpu0_ITLB TOTAL     ACCESS:  112346984  HIT:  112346984  MISS:          0
cpu0_ITLB LOAD      ACCESS:  112346984  HIT:  112346984  MISS:          0
cpu0_ITLB RFO       ACCESS:          0  HIT:          0  MISS:          0
cpu0_ITLB PREFETCH  ACCESS:          0  HIT:          0  MISS:          0
cpu0_ITLB WRITEBACK ACCESS:          0  HIT:          0  MISS:          0
cpu0_ITLB TRANSLATION ACCESS:          0  HIT:          0  MISS:          0
cpu0_ITLB PREFETCH  REQUESTED:          0  ISSUED:          0  USEFUL:          0  USELESS:          0
cpu0_ITLB AVERAGE MISS LATENCY: -nan cycles
cpu0_L1I TOTAL     ACCESS:     231133  HIT:     231132  MISS:          1
cpu0_L1I LOAD      ACCESS:     231133  HIT:     231132  MISS:          1
cpu0_L1I RFO       ACCESS:          0  HIT:          0  MISS:          0
cpu0_L1I PREFETCH  ACCESS:          0  HIT:          0  MISS:          0
cpu0_L1I WRITEBACK ACCESS:          0  HIT:          0  MISS:          0
cpu0_L1I TRANSLATION ACCESS:          0  HIT:          0  MISS:          0
cpu0_L1I PREFETCH  REQUESTED:          0  ISSUED:          0  USEFUL:          0  USELESS:          0
cpu0_L1I AVERAGE MISS LATENCY: 194 cycles
cpu0_STLB TOTAL     ACCESS:     444026  HIT:     388217  MISS:      55809
cpu0_STLB LOAD      ACCESS:     442921  HIT:     387427  MISS:      55494
cpu0_STLB RFO       ACCESS:       1105  HIT:        790  MISS:        315
cpu0_STLB PREFETCH  ACCESS:          0  HIT:          0  MISS:          0
cpu0_STLB WRITEBACK ACCESS:          0  HIT:          0  MISS:          0
cpu0_STLB TRANSLATION ACCESS:          0  HIT:          0  MISS:          0
cpu0_STLB PREFETCH  REQUESTED:          0  ISSUED:          0  USEFUL:          0  USELESS:          0
cpu0_STLB AVERAGE MISS LATENCY: 40.6814 cycles
cpu0_L1D TOTAL     ACCESS:  228849186  HIT:  212333747  MISS:   16515439
cpu0_L1D LOAD      ACCESS:  128695511  HIT:  112207101  MISS:   16488410
cpu0_L1D RFO       ACCESS:  100098030  HIT:  100088065  MISS:       9965
cpu0_L1D PREFETCH  ACCESS:          0  HIT:          0  MISS:          0
cpu0_L1D WRITEBACK ACCESS:          0  HIT:          0  MISS:          0
cpu0_L1D TRANSLATION ACCESS:      55645  HIT:      38581  MISS:      17064
cpu0_L1D PREFETCH  REQUESTED:          0  ISSUED:          0  USEFUL:          0  USELESS:          0
cpu0_L1D AVERAGE MISS LATENCY: 18.5403 cycles
cpu0_L2C TOTAL     ACCESS:   72728817  HIT:   64446224  MISS:    8282593
cpu0_L2C LOAD      ACCESS:   16488411  HIT:   13535222  MISS:    2953189
cpu0_L2C RFO       ACCESS:       9965  HIT:       1755  MISS:       8210
cpu0_L2C PREFETCH  ACCESS:   56048907  HIT:   50733651  MISS:    5315256
cpu0_L2C WRITEBACK ACCESS:     164470  HIT:     164428  MISS:         42
cpu0_L2C TRANSLATION ACCESS:      17064  HIT:      11168  MISS:       5896
cpu0_L2C PREFETCH  REQUESTED:  132737834  ISSUED:  126729530  USEFUL:    5340054  USELESS:      22089
cpu0_L2C AVERAGE MISS LATENCY: 30.2388 cycles
LLC TOTAL     ACCESS:   78175402  HIT:   69374515  MISS:    8800887
LLC LOAD      ACCESS:    2906301  HIT:    2516921  MISS:     389380
LLC RFO       ACCESS:       8210  HIT:        817  MISS:       7393
LLC PREFETCH  ACCESS:   75175490  HIT:   66794176  MISS:    8381314
LLC WRITEBACK ACCESS:      79505  HIT:      61322  MISS:      18183
LLC TRANSLATION ACCESS:       5896  HIT:       1279  MISS:       4617
LLC PREFETCH  REQUESTED:          0  ISSUED:          0  USEFUL:          0  USELESS:          0
LLC AVERAGE MISS LATENCY: 107.432 cycles

DRAM Statistics
 CHANNEL 0
 RQ ROW_BUFFER_HIT:    6467884  ROW_BUFFER_MISS:    2314817
 DBUS AVG_CONGESTED_CYCLE:    3.97277
 WQ ROW_BUFFER_HIT:      28104  ROW_BUFFER_MISS:      50513  FULL:          0


CPU 0 Branch Prediction Accuracy: 94.6562% MPKI: 12.6924 Average ROB Occupancy at Mispredict: 58.5701
Branch type MPKI
BRANCH_DIRECT_JUMP: 4e-06
BRANCH_INDIRECT: 0
BRANCH_CONDITIONAL: 12.6924
BRANCH_DIRECT_CALL: 1e-06
BRANCH_INDIRECT_CALL: 2e-06
BRANCH_RETURN: 1e-06

***************** Done with 602.gcc_s-734B.champsimtrace.xz using spp-dev, on Thu Apr 14 16:44:31 CDT 2022 ******************
