Started running file 600.perlbench_s-210B.champsimtrace.xz at time Wed Apr 20 11:42:08 CDT 2022 with prefetcher ppf-spp-dev-3

*** ChampSim Multicore Out-of-Order Simulator ***

Warmup Instructions: 200000000
Simulation Instructions: 1000000000
Number of CPUs: 1
Off-chip DRAM Size: 4 GiB Channels: 1 Width: 64-bit Data Rate: 3200 MT/s

VirtualMemory physical capacity: 8588881920 num_ppages: 2096895
VirtualMemory page size: 4096 log2_page_size: 12

CPU 0 runs /home/faculty/p/pgratz/dpc3_traces/600.perlbench_s-210B.champsimtrace.xz
CPU 0 Bimodal branch predictor
Basic BTB sets: 1024 ways: 8 indirect buffer size: 4096 RAS size: 64
cpu0_L2C PPF SPP DEV Prefetcher
Heartbeat CPU 0 instructions: 10000003 cycles: 2511519 heartbeat IPC: 3.98166 cumulative IPC: 3.98166 (Simulation time: 0 hr 0 min 30 sec) 
Heartbeat CPU 0 instructions: 20000003 cycles: 5011519 heartbeat IPC: 4 cumulative IPC: 3.99081 (Simulation time: 0 hr 1 min 3 sec) 
Heartbeat CPU 0 instructions: 30000003 cycles: 7511519 heartbeat IPC: 4 cumulative IPC: 3.99387 (Simulation time: 0 hr 1 min 35 sec) 
Heartbeat CPU 0 instructions: 40000001 cycles: 10011982 heartbeat IPC: 3.99926 cumulative IPC: 3.99521 (Simulation time: 0 hr 2 min 8 sec) 
Heartbeat CPU 0 instructions: 50000003 cycles: 12512568 heartbeat IPC: 3.99906 cumulative IPC: 3.99598 (Simulation time: 0 hr 2 min 40 sec) 
Heartbeat CPU 0 instructions: 60000002 cycles: 15013097 heartbeat IPC: 3.99915 cumulative IPC: 3.99651 (Simulation time: 0 hr 3 min 13 sec) 
Heartbeat CPU 0 instructions: 70000002 cycles: 17513097 heartbeat IPC: 4 cumulative IPC: 3.99701 (Simulation time: 0 hr 3 min 46 sec) 
Heartbeat CPU 0 instructions: 80000002 cycles: 20013097 heartbeat IPC: 4 cumulative IPC: 3.99738 (Simulation time: 0 hr 4 min 20 sec) 
Heartbeat CPU 0 instructions: 90000000 cycles: 22521339 heartbeat IPC: 3.98686 cumulative IPC: 3.99621 (Simulation time: 0 hr 4 min 51 sec) 
Heartbeat CPU 0 instructions: 100000000 cycles: 25022556 heartbeat IPC: 3.99805 cumulative IPC: 3.99639 (Simulation time: 0 hr 5 min 23 sec) 
Heartbeat CPU 0 instructions: 110000000 cycles: 27522556 heartbeat IPC: 4 cumulative IPC: 3.99672 (Simulation time: 0 hr 5 min 56 sec) 
Heartbeat CPU 0 instructions: 120000000 cycles: 30022556 heartbeat IPC: 4 cumulative IPC: 3.99699 (Simulation time: 0 hr 6 min 29 sec) 
Heartbeat CPU 0 instructions: 130000002 cycles: 32523245 heartbeat IPC: 3.9989 cumulative IPC: 3.99714 (Simulation time: 0 hr 7 min 1 sec) 
Heartbeat CPU 0 instructions: 140000001 cycles: 35023515 heartbeat IPC: 3.99957 cumulative IPC: 3.99731 (Simulation time: 0 hr 7 min 33 sec) 
Heartbeat CPU 0 instructions: 150000002 cycles: 37523823 heartbeat IPC: 3.99951 cumulative IPC: 3.99746 (Simulation time: 0 hr 8 min 6 sec) 
