Started running file 628.pop2_s-17B.champsimtrace.xz at time Wed Apr 20 11:42:08 CDT 2022 with prefetcher ppf-spp-dev-3

*** ChampSim Multicore Out-of-Order Simulator ***

Warmup Instructions: 200000000
Simulation Instructions: 1000000000
Number of CPUs: 1
Off-chip DRAM Size: 4 GiB Channels: 1 Width: 64-bit Data Rate: 3200 MT/s

VirtualMemory physical capacity: 8588881920 num_ppages: 2096895
VirtualMemory page size: 4096 log2_page_size: 12

CPU 0 runs /home/faculty/p/pgratz/dpc3_traces/628.pop2_s-17B.champsimtrace.xz
CPU 0 Bimodal branch predictor
Basic BTB sets: 1024 ways: 8 indirect buffer size: 4096 RAS size: 64
cpu0_L2C PPF SPP DEV Prefetcher
Heartbeat CPU 0 instructions: 10000000 cycles: 2811727 heartbeat IPC: 3.55653 cumulative IPC: 3.55653 (Simulation time: 0 hr 0 min 33 sec) 
Heartbeat CPU 0 instructions: 20000002 cycles: 5622974 heartbeat IPC: 3.55714 cumulative IPC: 3.55684 (Simulation time: 0 hr 1 min 5 sec) 
Heartbeat CPU 0 instructions: 30000004 cycles: 8433614 heartbeat IPC: 3.55791 cumulative IPC: 3.55719 (Simulation time: 0 hr 1 min 38 sec) 
Heartbeat CPU 0 instructions: 40000001 cycles: 11242781 heartbeat IPC: 3.55977 cumulative IPC: 3.55784 (Simulation time: 0 hr 2 min 10 sec) 
Heartbeat CPU 0 instructions: 50000003 cycles: 14050801 heartbeat IPC: 3.56123 cumulative IPC: 3.55852 (Simulation time: 0 hr 2 min 43 sec) 
Heartbeat CPU 0 instructions: 60000001 cycles: 16859034 heartbeat IPC: 3.56096 cumulative IPC: 3.55892 (Simulation time: 0 hr 3 min 15 sec) 
Heartbeat CPU 0 instructions: 70000000 cycles: 19662575 heartbeat IPC: 3.56692 cumulative IPC: 3.56006 (Simulation time: 0 hr 3 min 46 sec) 
Heartbeat CPU 0 instructions: 80000001 cycles: 22279481 heartbeat IPC: 3.82131 cumulative IPC: 3.59075 (Simulation time: 0 hr 4 min 16 sec) 
Heartbeat CPU 0 instructions: 90000001 cycles: 25037386 heartbeat IPC: 3.62594 cumulative IPC: 3.59462 (Simulation time: 0 hr 4 min 44 sec) 
