Started running file 602.gcc_s-734B.champsimtrace.xz at time Wed Apr 20 11:42:08 CDT 2022 with prefetcher ppf-spp-dev-3

*** ChampSim Multicore Out-of-Order Simulator ***

Warmup Instructions: 200000000
Simulation Instructions: 1000000000
Number of CPUs: 1
Off-chip DRAM Size: 4 GiB Channels: 1 Width: 64-bit Data Rate: 3200 MT/s

VirtualMemory physical capacity: 8588881920 num_ppages: 2096895
VirtualMemory page size: 4096 log2_page_size: 12

CPU 0 runs /home/faculty/p/pgratz/dpc3_traces/602.gcc_s-734B.champsimtrace.xz
CPU 0 Bimodal branch predictor
Basic BTB sets: 1024 ways: 8 indirect buffer size: 4096 RAS size: 64
cpu0_L2C PPF SPP DEV Prefetcher
Heartbeat CPU 0 instructions: 10000002 cycles: 2500071 heartbeat IPC: 3.99989 cumulative IPC: 3.99989 (Simulation time: 0 hr 0 min 29 sec) 
Heartbeat CPU 0 instructions: 20000003 cycles: 5000457 heartbeat IPC: 3.99938 cumulative IPC: 3.99963 (Simulation time: 0 hr 0 min 59 sec) 
Heartbeat CPU 0 instructions: 30000003 cycles: 7500457 heartbeat IPC: 4 cumulative IPC: 3.99976 (Simulation time: 0 hr 1 min 28 sec) 
Heartbeat CPU 0 instructions: 40000000 cycles: 10000461 heartbeat IPC: 3.99999 cumulative IPC: 3.99982 (Simulation time: 0 hr 1 min 58 sec) 
Heartbeat CPU 0 instructions: 50000000 cycles: 12500461 heartbeat IPC: 4 cumulative IPC: 3.99985 (Simulation time: 0 hr 2 min 27 sec) 
Heartbeat CPU 0 instructions: 60000000 cycles: 15000461 heartbeat IPC: 4 cumulative IPC: 3.99988 (Simulation time: 0 hr 2 min 56 sec) 
Heartbeat CPU 0 instructions: 70000001 cycles: 17506792 heartbeat IPC: 3.9899 cumulative IPC: 3.99845 (Simulation time: 0 hr 3 min 26 sec) 
Heartbeat CPU 0 instructions: 80000001 cycles: 20006792 heartbeat IPC: 4 cumulative IPC: 3.99864 (Simulation time: 0 hr 3 min 55 sec) 
Heartbeat CPU 0 instructions: 90000001 cycles: 22506792 heartbeat IPC: 4 cumulative IPC: 3.99879 (Simulation time: 0 hr 4 min 24 sec) 
Heartbeat CPU 0 instructions: 100000002 cycles: 25246883 heartbeat IPC: 3.64951 cumulative IPC: 3.96089 (Simulation time: 0 hr 4 min 58 sec) 
Heartbeat CPU 0 instructions: 110000002 cycles: 27746883 heartbeat IPC: 4 cumulative IPC: 3.96441 (Simulation time: 0 hr 5 min 27 sec) 
Heartbeat CPU 0 instructions: 120000002 cycles: 30246883 heartbeat IPC: 4 cumulative IPC: 3.96735 (Simulation time: 0 hr 5 min 57 sec) 
Heartbeat CPU 0 instructions: 130000002 cycles: 32803547 heartbeat IPC: 3.91135 cumulative IPC: 3.96299 (Simulation time: 0 hr 6 min 27 sec) 
Heartbeat CPU 0 instructions: 140000002 cycles: 35303547 heartbeat IPC: 4 cumulative IPC: 3.96561 (Simulation time: 0 hr 6 min 56 sec) 
Heartbeat CPU 0 instructions: 150000002 cycles: 37803568 heartbeat IPC: 3.99997 cumulative IPC: 3.96788 (Simulation time: 0 hr 7 min 26 sec) 
Heartbeat CPU 0 instructions: 160000002 cycles: 40306581 heartbeat IPC: 3.99518 cumulative IPC: 3.96958 (Simulation time: 0 hr 7 min 55 sec) 
Heartbeat CPU 0 instructions: 170000002 cycles: 42806581 heartbeat IPC: 4 cumulative IPC: 3.97135 (Simulation time: 0 hr 8 min 24 sec) 
Heartbeat CPU 0 instructions: 180000002 cycles: 45306581 heartbeat IPC: 4 cumulative IPC: 3.97293 (Simulation time: 0 hr 8 min 54 sec) 
Heartbeat CPU 0 instructions: 190000002 cycles: 47806581 heartbeat IPC: 4 cumulative IPC: 3.97435 (Simulation time: 0 hr 9 min 24 sec) 
Heartbeat CPU 0 instructions: 200000000 cycles: 50307081 heartbeat IPC: 3.9992 cumulative IPC: 3.97558 (Simulation time: 0 hr 9 min 54 sec) 

Warmup complete CPU 0 instructions: 200000004 cycles: 50307082 (Simulation time: 0 hr 9 min 54 sec) 

