Started running file 649.fotonik3d_s-1176B.champsimtrace.xz at time Mon Apr 18 02:11:26 CDT 2022 with prefetcher ppf-spp-dev

*** ChampSim Multicore Out-of-Order Simulator ***

Warmup Instructions: 200000000
Simulation Instructions: 1000000000
Number of CPUs: 1
Off-chip DRAM Size: 4 GiB Channels: 1 Width: 64-bit Data Rate: 3200 MT/s

VirtualMemory physical capacity: 8588881920 num_ppages: 2096895
VirtualMemory page size: 4096 log2_page_size: 12

CPU 0 runs /home/faculty/p/pgratz/dpc3_traces/649.fotonik3d_s-1176B.champsimtrace.xz
CPU 0 Bimodal branch predictor
Basic BTB sets: 1024 ways: 8 indirect buffer size: 4096 RAS size: 64
cpu0_L2C PPF SPP DEV Prefetcher
Heartbeat CPU 0 instructions: 10000001 cycles: 3507808 heartbeat IPC: 2.85078 cumulative IPC: 2.85078 (Simulation time: 0 hr 0 min 45 sec) 
Heartbeat CPU 0 instructions: 20000001 cycles: 7015497 heartbeat IPC: 2.85088 cumulative IPC: 2.85083 (Simulation time: 0 hr 1 min 30 sec) 
Heartbeat CPU 0 instructions: 30000000 cycles: 10523177 heartbeat IPC: 2.85089 cumulative IPC: 2.85085 (Simulation time: 0 hr 2 min 15 sec) 
Heartbeat CPU 0 instructions: 40000003 cycles: 14030862 heartbeat IPC: 2.85088 cumulative IPC: 2.85086 (Simulation time: 0 hr 3 min 0 sec) 
Heartbeat CPU 0 instructions: 50000001 cycles: 17538550 heartbeat IPC: 2.85088 cumulative IPC: 2.85086 (Simulation time: 0 hr 3 min 44 sec) 
Heartbeat CPU 0 instructions: 60000003 cycles: 21046282 heartbeat IPC: 2.85085 cumulative IPC: 2.85086 (Simulation time: 0 hr 4 min 29 sec) 
Heartbeat CPU 0 instructions: 70000004 cycles: 24553967 heartbeat IPC: 2.85088 cumulative IPC: 2.85086 (Simulation time: 0 hr 5 min 14 sec) 
Heartbeat CPU 0 instructions: 80000002 cycles: 28061652 heartbeat IPC: 2.85088 cumulative IPC: 2.85087 (Simulation time: 0 hr 5 min 59 sec) 
Heartbeat CPU 0 instructions: 90000003 cycles: 31569339 heartbeat IPC: 2.85088 cumulative IPC: 2.85087 (Simulation time: 0 hr 6 min 44 sec) 
Heartbeat CPU 0 instructions: 100000001 cycles: 35077027 heartbeat IPC: 2.85088 cumulative IPC: 2.85087 (Simulation time: 0 hr 7 min 29 sec) 
Heartbeat CPU 0 instructions: 110000004 cycles: 38584711 heartbeat IPC: 2.85088 cumulative IPC: 2.85087 (Simulation time: 0 hr 8 min 13 sec) 
Heartbeat CPU 0 instructions: 120000003 cycles: 42092395 heartbeat IPC: 2.85088 cumulative IPC: 2.85087 (Simulation time: 0 hr 8 min 58 sec) 
Heartbeat CPU 0 instructions: 130000003 cycles: 45600080 heartbeat IPC: 2.85088 cumulative IPC: 2.85087 (Simulation time: 0 hr 9 min 43 sec) 
Heartbeat CPU 0 instructions: 140000001 cycles: 49107765 heartbeat IPC: 2.85088 cumulative IPC: 2.85087 (Simulation time: 0 hr 10 min 28 sec) 
Heartbeat CPU 0 instructions: 150000002 cycles: 52615450 heartbeat IPC: 2.85088 cumulative IPC: 2.85087 (Simulation time: 0 hr 11 min 13 sec) 
Heartbeat CPU 0 instructions: 160000002 cycles: 56123135 heartbeat IPC: 2.85088 cumulative IPC: 2.85087 (Simulation time: 0 hr 11 min 58 sec) 
Heartbeat CPU 0 instructions: 170000000 cycles: 59630869 heartbeat IPC: 2.85084 cumulative IPC: 2.85087 (Simulation time: 0 hr 12 min 43 sec) 
Heartbeat CPU 0 instructions: 180000000 cycles: 63138553 heartbeat IPC: 2.85088 cumulative IPC: 2.85087 (Simulation time: 0 hr 13 min 28 sec) 
Heartbeat CPU 0 instructions: 190000004 cycles: 66646239 heartbeat IPC: 2.85088 cumulative IPC: 2.85087 (Simulation time: 0 hr 14 min 12 sec) 
Heartbeat CPU 0 instructions: 200000003 cycles: 70153923 heartbeat IPC: 2.85088 cumulative IPC: 2.85087 (Simulation time: 0 hr 14 min 57 sec) 

Warmup complete CPU 0 instructions: 200000003 cycles: 70153923 (Simulation time: 0 hr 14 min 57 sec) 

Heartbeat CPU 0 instructions: 210000002 cycles: 75662756 heartbeat IPC: 1.81527 cumulative IPC: 1.81527 (Simulation time: 0 hr 15 min 55 sec) 
Heartbeat CPU 0 instructions: 220000001 cycles: 81151849 heartbeat IPC: 1.82179 cumulative IPC: 1.81852 (Simulation time: 0 hr 16 min 52 sec) 
Heartbeat CPU 0 instructions: 230000004 cycles: 86699609 heartbeat IPC: 1.80253 cumulative IPC: 1.81316 (Simulation time: 0 hr 17 min 50 sec) 
Heartbeat CPU 0 instructions: 240000004 cycles: 92202921 heartbeat IPC: 1.81709 cumulative IPC: 1.81414 (Simulation time: 0 hr 18 min 47 sec) 
Heartbeat CPU 0 instructions: 250000000 cycles: 97753761 heartbeat IPC: 1.80153 cumulative IPC: 1.8116 (Simulation time: 0 hr 19 min 45 sec) 
Heartbeat CPU 0 instructions: 260000001 cycles: 103302222 heartbeat IPC: 1.8023 cumulative IPC: 1.81005 (Simulation time: 0 hr 20 min 43 sec) 
Heartbeat CPU 0 instructions: 270000002 cycles: 109175255 heartbeat IPC: 1.7027 cumulative IPC: 1.79389 (Simulation time: 0 hr 21 min 37 sec) 
Heartbeat CPU 0 instructions: 280000001 cycles: 115147758 heartbeat IPC: 1.67434 cumulative IPC: 1.77802 (Simulation time: 0 hr 22 min 30 sec) 
Heartbeat CPU 0 instructions: 290000001 cycles: 120689557 heartbeat IPC: 1.80447 cumulative IPC: 1.78092 (Simulation time: 0 hr 23 min 27 sec) 
Heartbeat CPU 0 instructions: 300000002 cycles: 126222025 heartbeat IPC: 1.80751 cumulative IPC: 1.78355 (Simulation time: 0 hr 24 min 25 sec) 
Heartbeat CPU 0 instructions: 310000003 cycles: 131750284 heartbeat IPC: 1.80889 cumulative IPC: 1.78582 (Simulation time: 0 hr 25 min 22 sec) 
Heartbeat CPU 0 instructions: 320000003 cycles: 137239056 heartbeat IPC: 1.8219 cumulative IPC: 1.78877 (Simulation time: 0 hr 26 min 20 sec) 
Heartbeat CPU 0 instructions: 330000003 cycles: 142796760 heartbeat IPC: 1.7993 cumulative IPC: 1.78958 (Simulation time: 0 hr 27 min 17 sec) 
Heartbeat CPU 0 instructions: 340000002 cycles: 148311901 heartbeat IPC: 1.81319 cumulative IPC: 1.79124 (Simulation time: 0 hr 28 min 15 sec) 
Heartbeat CPU 0 instructions: 350000003 cycles: 153882295 heartbeat IPC: 1.79521 cumulative IPC: 1.79151 (Simulation time: 0 hr 29 min 12 sec) 
Heartbeat CPU 0 instructions: 360000000 cycles: 159460718 heartbeat IPC: 1.79262 cumulative IPC: 1.79158 (Simulation time: 0 hr 30 min 10 sec) 
Heartbeat CPU 0 instructions: 370000003 cycles: 165041612 heartbeat IPC: 1.79183 cumulative IPC: 1.79159 (Simulation time: 0 hr 31 min 8 sec) 
Heartbeat CPU 0 instructions: 380000000 cycles: 170581277 heartbeat IPC: 1.80516 cumulative IPC: 1.79234 (Simulation time: 0 hr 32 min 5 sec) 
Heartbeat CPU 0 instructions: 390000004 cycles: 176144905 heartbeat IPC: 1.79739 cumulative IPC: 1.79261 (Simulation time: 0 hr 33 min 3 sec) 
Heartbeat CPU 0 instructions: 400000004 cycles: 181623868 heartbeat IPC: 1.82516 cumulative IPC: 1.79421 (Simulation time: 0 hr 34 min 0 sec) 
Heartbeat CPU 0 instructions: 410000002 cycles: 187092540 heartbeat IPC: 1.8286 cumulative IPC: 1.79581 (Simulation time: 0 hr 34 min 58 sec) 
Heartbeat CPU 0 instructions: 420000001 cycles: 192642301 heartbeat IPC: 1.80188 cumulative IPC: 1.79609 (Simulation time: 0 hr 35 min 55 sec) 
Heartbeat CPU 0 instructions: 430000003 cycles: 198180277 heartbeat IPC: 1.80571 cumulative IPC: 1.79651 (Simulation time: 0 hr 36 min 53 sec) 
Heartbeat CPU 0 instructions: 440000000 cycles: 203710025 heartbeat IPC: 1.8084 cumulative IPC: 1.797 (Simulation time: 0 hr 37 min 50 sec) 
Heartbeat CPU 0 instructions: 450000000 cycles: 209278092 heartbeat IPC: 1.79596 cumulative IPC: 1.79696 (Simulation time: 0 hr 38 min 48 sec) 
Heartbeat CPU 0 instructions: 460000003 cycles: 214794461 heartbeat IPC: 1.81279 cumulative IPC: 1.79756 (Simulation time: 0 hr 39 min 45 sec) 
Heartbeat CPU 0 instructions: 470000000 cycles: 220324483 heartbeat IPC: 1.80831 cumulative IPC: 1.79796 (Simulation time: 0 hr 40 min 43 sec) 
Heartbeat CPU 0 instructions: 480000002 cycles: 225927677 heartbeat IPC: 1.7847 cumulative IPC: 1.79748 (Simulation time: 0 hr 41 min 41 sec) 
Heartbeat CPU 0 instructions: 490000002 cycles: 231496457 heartbeat IPC: 1.79573 cumulative IPC: 1.79742 (Simulation time: 0 hr 42 min 38 sec) 
Heartbeat CPU 0 instructions: 500000004 cycles: 237021986 heartbeat IPC: 1.80978 cumulative IPC: 1.79783 (Simulation time: 0 hr 43 min 36 sec) 
Heartbeat CPU 0 instructions: 510000002 cycles: 242543868 heartbeat IPC: 1.81098 cumulative IPC: 1.79825 (Simulation time: 0 hr 44 min 33 sec) 
Heartbeat CPU 0 instructions: 520000000 cycles: 248042506 heartbeat IPC: 1.81863 cumulative IPC: 1.79888 (Simulation time: 0 hr 45 min 31 sec) 
Heartbeat CPU 0 instructions: 530000000 cycles: 253520328 heartbeat IPC: 1.82554 cumulative IPC: 1.79968 (Simulation time: 0 hr 46 min 28 sec) 
Heartbeat CPU 0 instructions: 540000003 cycles: 259078962 heartbeat IPC: 1.799 cumulative IPC: 1.79966 (Simulation time: 0 hr 47 min 26 sec) 
Heartbeat CPU 0 instructions: 550000003 cycles: 264603217 heartbeat IPC: 1.8102 cumulative IPC: 1.79996 (Simulation time: 0 hr 48 min 23 sec) 
Heartbeat CPU 0 instructions: 560000000 cycles: 270115812 heartbeat IPC: 1.81403 cumulative IPC: 1.80034 (Simulation time: 0 hr 49 min 21 sec) 
Heartbeat CPU 0 instructions: 570000004 cycles: 275697640 heartbeat IPC: 1.79153 cumulative IPC: 1.8001 (Simulation time: 0 hr 50 min 21 sec) 
Heartbeat CPU 0 instructions: 580000002 cycles: 281224878 heartbeat IPC: 1.80922 cumulative IPC: 1.80034 (Simulation time: 0 hr 51 min 22 sec) 
Heartbeat CPU 0 instructions: 590000001 cycles: 286741495 heartbeat IPC: 1.8127 cumulative IPC: 1.80066 (Simulation time: 0 hr 52 min 21 sec) 
Heartbeat CPU 0 instructions: 600000000 cycles: 292335995 heartbeat IPC: 1.78747 cumulative IPC: 1.80033 (Simulation time: 0 hr 53 min 19 sec) 
Heartbeat CPU 0 instructions: 610000004 cycles: 297909267 heartbeat IPC: 1.79428 cumulative IPC: 1.80018 (Simulation time: 0 hr 54 min 17 sec) 
Heartbeat CPU 0 instructions: 620000002 cycles: 303414999 heartbeat IPC: 1.81629 cumulative IPC: 1.80056 (Simulation time: 0 hr 55 min 14 sec) 
Heartbeat CPU 0 instructions: 630000002 cycles: 308927371 heartbeat IPC: 1.8141 cumulative IPC: 1.80087 (Simulation time: 0 hr 56 min 12 sec) 
Heartbeat CPU 0 instructions: 640000001 cycles: 314475259 heartbeat IPC: 1.80249 cumulative IPC: 1.80091 (Simulation time: 0 hr 57 min 9 sec) 
Heartbeat CPU 0 instructions: 650000003 cycles: 319991160 heartbeat IPC: 1.81294 cumulative IPC: 1.80117 (Simulation time: 0 hr 58 min 7 sec) 
Heartbeat CPU 0 instructions: 660000000 cycles: 325521598 heartbeat IPC: 1.80817 cumulative IPC: 1.80132 (Simulation time: 0 hr 59 min 4 sec) 
Heartbeat CPU 0 instructions: 670000001 cycles: 331099138 heartbeat IPC: 1.79291 cumulative IPC: 1.80114 (Simulation time: 1 hr 0 min 2 sec) 
Heartbeat CPU 0 instructions: 680000004 cycles: 336567400 heartbeat IPC: 1.82874 cumulative IPC: 1.80171 (Simulation time: 1 hr 0 min 59 sec) 
Heartbeat CPU 0 instructions: 690000001 cycles: 342071539 heartbeat IPC: 1.81681 cumulative IPC: 1.80202 (Simulation time: 1 hr 1 min 57 sec) 
Heartbeat CPU 0 instructions: 700000001 cycles: 347591579 heartbeat IPC: 1.81158 cumulative IPC: 1.80221 (Simulation time: 1 hr 2 min 54 sec) 
Heartbeat CPU 0 instructions: 710000002 cycles: 353060192 heartbeat IPC: 1.82862 cumulative IPC: 1.80272 (Simulation time: 1 hr 3 min 51 sec) 
Heartbeat CPU 0 instructions: 720000004 cycles: 358651443 heartbeat IPC: 1.78851 cumulative IPC: 1.80244 (Simulation time: 1 hr 4 min 49 sec) 
Heartbeat CPU 0 instructions: 730000001 cycles: 364188674 heartbeat IPC: 1.80596 cumulative IPC: 1.80251 (Simulation time: 1 hr 5 min 49 sec) 
Heartbeat CPU 0 instructions: 740000000 cycles: 369738705 heartbeat IPC: 1.80179 cumulative IPC: 1.80249 (Simulation time: 1 hr 6 min 48 sec) 
Heartbeat CPU 0 instructions: 750000004 cycles: 375289152 heartbeat IPC: 1.80166 cumulative IPC: 1.80248 (Simulation time: 1 hr 7 min 48 sec) 
Heartbeat CPU 0 instructions: 760000001 cycles: 380834038 heartbeat IPC: 1.80346 cumulative IPC: 1.8025 (Simulation time: 1 hr 8 min 46 sec) 
Heartbeat CPU 0 instructions: 770000003 cycles: 386342096 heartbeat IPC: 1.81552 cumulative IPC: 1.80272 (Simulation time: 1 hr 9 min 43 sec) 
Heartbeat CPU 0 instructions: 780000002 cycles: 391860678 heartbeat IPC: 1.81206 cumulative IPC: 1.80288 (Simulation time: 1 hr 10 min 41 sec) 
Heartbeat CPU 0 instructions: 790000003 cycles: 397427231 heartbeat IPC: 1.79644 cumulative IPC: 1.80277 (Simulation time: 1 hr 11 min 38 sec) 
Heartbeat CPU 0 instructions: 800000003 cycles: 402967590 heartbeat IPC: 1.80494 cumulative IPC: 1.80281 (Simulation time: 1 hr 12 min 36 sec) 
Heartbeat CPU 0 instructions: 810000000 cycles: 408522063 heartbeat IPC: 1.80035 cumulative IPC: 1.80277 (Simulation time: 1 hr 13 min 34 sec) 
Heartbeat CPU 0 instructions: 820000002 cycles: 414070991 heartbeat IPC: 1.80215 cumulative IPC: 1.80276 (Simulation time: 1 hr 14 min 31 sec) 
Heartbeat CPU 0 instructions: 830000004 cycles: 419566011 heartbeat IPC: 1.81983 cumulative IPC: 1.80303 (Simulation time: 1 hr 15 min 29 sec) 
Heartbeat CPU 0 instructions: 840000004 cycles: 425059025 heartbeat IPC: 1.82049 cumulative IPC: 1.8033 (Simulation time: 1 hr 16 min 26 sec) 
Heartbeat CPU 0 instructions: 850000002 cycles: 430603108 heartbeat IPC: 1.80372 cumulative IPC: 1.80331 (Simulation time: 1 hr 17 min 23 sec) 
Heartbeat CPU 0 instructions: 860000002 cycles: 436143760 heartbeat IPC: 1.80484 cumulative IPC: 1.80333 (Simulation time: 1 hr 18 min 21 sec) 
Heartbeat CPU 0 instructions: 870000000 cycles: 441692314 heartbeat IPC: 1.80227 cumulative IPC: 1.80331 (Simulation time: 1 hr 19 min 18 sec) 
Heartbeat CPU 0 instructions: 880000004 cycles: 447205976 heartbeat IPC: 1.81368 cumulative IPC: 1.80346 (Simulation time: 1 hr 20 min 16 sec) 
Heartbeat CPU 0 instructions: 890000003 cycles: 452697159 heartbeat IPC: 1.8211 cumulative IPC: 1.80372 (Simulation time: 1 hr 21 min 13 sec) 
Heartbeat CPU 0 instructions: 900000001 cycles: 458188345 heartbeat IPC: 1.8211 cumulative IPC: 1.80396 (Simulation time: 1 hr 22 min 10 sec) 
Heartbeat CPU 0 instructions: 910000001 cycles: 463746100 heartbeat IPC: 1.79929 cumulative IPC: 1.8039 (Simulation time: 1 hr 23 min 8 sec) 
Heartbeat CPU 0 instructions: 920000003 cycles: 469276857 heartbeat IPC: 1.80807 cumulative IPC: 1.80396 (Simulation time: 1 hr 24 min 5 sec) 
Heartbeat CPU 0 instructions: 930000003 cycles: 474853772 heartbeat IPC: 1.79311 cumulative IPC: 1.80381 (Simulation time: 1 hr 25 min 3 sec) 
Heartbeat CPU 0 instructions: 940000002 cycles: 480395547 heartbeat IPC: 1.80448 cumulative IPC: 1.80382 (Simulation time: 1 hr 26 min 0 sec) 
Heartbeat CPU 0 instructions: 950000000 cycles: 485901759 heartbeat IPC: 1.81613 cumulative IPC: 1.80398 (Simulation time: 1 hr 26 min 58 sec) 
Heartbeat CPU 0 instructions: 960000002 cycles: 491498576 heartbeat IPC: 1.78673 cumulative IPC: 1.80375 (Simulation time: 1 hr 27 min 56 sec) 
Heartbeat CPU 0 instructions: 970000000 cycles: 497033537 heartbeat IPC: 1.8067 cumulative IPC: 1.80379 (Simulation time: 1 hr 28 min 53 sec) 
Heartbeat CPU 0 instructions: 980000000 cycles: 502574665 heartbeat IPC: 1.80469 cumulative IPC: 1.8038 (Simulation time: 1 hr 29 min 51 sec) 
Heartbeat CPU 0 instructions: 990000001 cycles: 508090779 heartbeat IPC: 1.81287 cumulative IPC: 1.80391 (Simulation time: 1 hr 30 min 48 sec) 
Heartbeat CPU 0 instructions: 1000000000 cycles: 513584671 heartbeat IPC: 1.8202 cumulative IPC: 1.80411 (Simulation time: 1 hr 31 min 45 sec) 
Heartbeat CPU 0 instructions: 1010000002 cycles: 519117573 heartbeat IPC: 1.80737 cumulative IPC: 1.80415 (Simulation time: 1 hr 32 min 43 sec) 
Heartbeat CPU 0 instructions: 1020000001 cycles: 524612097 heartbeat IPC: 1.81999 cumulative IPC: 1.80435 (Simulation time: 1 hr 33 min 40 sec) 
Heartbeat CPU 0 instructions: 1030000004 cycles: 530173040 heartbeat IPC: 1.79826 cumulative IPC: 1.80427 (Simulation time: 1 hr 34 min 38 sec) 
Heartbeat CPU 0 instructions: 1040000000 cycles: 535698066 heartbeat IPC: 1.80995 cumulative IPC: 1.80434 (Simulation time: 1 hr 35 min 36 sec) 
Heartbeat CPU 0 instructions: 1050000002 cycles: 541190380 heartbeat IPC: 1.82073 cumulative IPC: 1.80453 (Simulation time: 1 hr 36 min 33 sec) 
Heartbeat CPU 0 instructions: 1060000003 cycles: 546724542 heartbeat IPC: 1.80696 cumulative IPC: 1.80456 (Simulation time: 1 hr 37 min 31 sec) 
Heartbeat CPU 0 instructions: 1070000003 cycles: 552270450 heartbeat IPC: 1.80313 cumulative IPC: 1.80454 (Simulation time: 1 hr 38 min 30 sec) 
Heartbeat CPU 0 instructions: 1080000002 cycles: 557815759 heartbeat IPC: 1.80333 cumulative IPC: 1.80453 (Simulation time: 1 hr 39 min 29 sec) 
Heartbeat CPU 0 instructions: 1090000002 cycles: 563328708 heartbeat IPC: 1.81391 cumulative IPC: 1.80463 (Simulation time: 1 hr 40 min 28 sec) 
Heartbeat CPU 0 instructions: 1100000002 cycles: 568873224 heartbeat IPC: 1.80358 cumulative IPC: 1.80462 (Simulation time: 1 hr 41 min 25 sec) 
Heartbeat CPU 0 instructions: 1110000001 cycles: 574439533 heartbeat IPC: 1.79652 cumulative IPC: 1.80453 (Simulation time: 1 hr 42 min 23 sec) 
Heartbeat CPU 0 instructions: 1120000002 cycles: 579956459 heartbeat IPC: 1.8126 cumulative IPC: 1.80462 (Simulation time: 1 hr 43 min 20 sec) 
Heartbeat CPU 0 instructions: 1130000002 cycles: 585532160 heartbeat IPC: 1.7935 cumulative IPC: 1.8045 (Simulation time: 1 hr 44 min 18 sec) 
Heartbeat CPU 0 instructions: 1140000003 cycles: 591053025 heartbeat IPC: 1.81131 cumulative IPC: 1.80457 (Simulation time: 1 hr 45 min 15 sec) 
Heartbeat CPU 0 instructions: 1150000003 cycles: 596539807 heartbeat IPC: 1.82256 cumulative IPC: 1.80476 (Simulation time: 1 hr 46 min 13 sec) 
Heartbeat CPU 0 instructions: 1160000002 cycles: 602102756 heartbeat IPC: 1.79761 cumulative IPC: 1.80468 (Simulation time: 1 hr 47 min 10 sec) 
Heartbeat CPU 0 instructions: 1170000001 cycles: 607643244 heartbeat IPC: 1.8049 cumulative IPC: 1.80469 (Simulation time: 1 hr 48 min 8 sec) 
Heartbeat CPU 0 instructions: 1180000000 cycles: 613192966 heartbeat IPC: 1.80189 cumulative IPC: 1.80466 (Simulation time: 1 hr 49 min 5 sec) 
Heartbeat CPU 0 instructions: 1190000000 cycles: 618721902 heartbeat IPC: 1.80867 cumulative IPC: 1.8047 (Simulation time: 1 hr 50 min 3 sec) 
Heartbeat CPU 0 instructions: 1200000004 cycles: 624284770 heartbeat IPC: 1.79763 cumulative IPC: 1.80463 (Simulation time: 1 hr 51 min 1 sec) 
Finished CPU 0 instructions: 1000000001 cycles: 554130847 cumulative IPC: 1.80463 (Simulation time: 1 hr 51 min 1 sec) 

ChampSim completed all CPUs

Region of Interest Statistics

CPU 0 cumulative IPC: 1.80463 instructions: 1000000001 cycles: 554130847
cpu0_DTLB TOTAL     ACCESS:  165066455  HIT:  164832852  MISS:     233603
cpu0_DTLB LOAD      ACCESS:  141220837  HIT:  140989438  MISS:     231399
cpu0_DTLB RFO       ACCESS:   23845618  HIT:   23843414  MISS:       2204
cpu0_DTLB PREFETCH  ACCESS:          0  HIT:          0  MISS:          0
cpu0_DTLB WRITEBACK ACCESS:          0  HIT:          0  MISS:          0
cpu0_DTLB TRANSLATION ACCESS:          0  HIT:          0  MISS:          0
cpu0_DTLB PREFETCH  REQUESTED:          0  ISSUED:          0  USEFUL:          0  USELESS:          0
cpu0_DTLB AVERAGE MISS LATENCY: 133.67 cycles
cpu0_ITLB TOTAL     ACCESS:     467018  HIT:     467007  MISS:         11
cpu0_ITLB LOAD      ACCESS:     467018  HIT:     467007  MISS:         11
cpu0_ITLB RFO       ACCESS:          0  HIT:          0  MISS:          0
cpu0_ITLB PREFETCH  ACCESS:          0  HIT:          0  MISS:          0
cpu0_ITLB WRITEBACK ACCESS:          0  HIT:          0  MISS:          0
cpu0_ITLB TRANSLATION ACCESS:          0  HIT:          0  MISS:          0
cpu0_ITLB PREFETCH  REQUESTED:          0  ISSUED:          0  USEFUL:          0  USELESS:          0
cpu0_ITLB AVERAGE MISS LATENCY: 189.182 cycles
cpu0_L1I TOTAL     ACCESS:     393134  HIT:     392857  MISS:        277
cpu0_L1I LOAD      ACCESS:     393134  HIT:     392857  MISS:        277
cpu0_L1I RFO       ACCESS:          0  HIT:          0  MISS:          0
cpu0_L1I PREFETCH  ACCESS:          0  HIT:          0  MISS:          0
cpu0_L1I WRITEBACK ACCESS:          0  HIT:          0  MISS:          0
cpu0_L1I TRANSLATION ACCESS:          0  HIT:          0  MISS:          0
cpu0_L1I PREFETCH  REQUESTED:          0  ISSUED:          0  USEFUL:          0  USELESS:          0
cpu0_L1I AVERAGE MISS LATENCY: 148.105 cycles
cpu0_STLB TOTAL     ACCESS:     233614  HIT:      96830  MISS:     136784
cpu0_STLB LOAD      ACCESS:     231410  HIT:      94626  MISS:     136784
cpu0_STLB RFO       ACCESS:       2204  HIT:       2204  MISS:          0
cpu0_STLB PREFETCH  ACCESS:          0  HIT:          0  MISS:          0
cpu0_STLB WRITEBACK ACCESS:          0  HIT:          0  MISS:          0
cpu0_STLB TRANSLATION ACCESS:          0  HIT:          0  MISS:          0
cpu0_STLB PREFETCH  REQUESTED:          0  ISSUED:          0  USEFUL:          0  USELESS:          0
cpu0_STLB AVERAGE MISS LATENCY: 209.487 cycles
cpu0_L1D TOTAL     ACCESS:  206862623  HIT:  193666806  MISS:   13195817
cpu0_L1D LOAD      ACCESS:  136464765  HIT:  123290857  MISS:   13173908
cpu0_L1D RFO       ACCESS:   70261075  HIT:   70243782  MISS:      17293
cpu0_L1D PREFETCH  ACCESS:          0  HIT:          0  MISS:          0
cpu0_L1D WRITEBACK ACCESS:          0  HIT:          0  MISS:          0
cpu0_L1D TRANSLATION ACCESS:     136783  HIT:     132167  MISS:       4616
cpu0_L1D PREFETCH  REQUESTED:          0  ISSUED:          0  USEFUL:          0  USELESS:          0
cpu0_L1D AVERAGE MISS LATENCY: 55.9766 cycles
cpu0_L2C TOTAL     ACCESS:   52547808  HIT:   42909470  MISS:    9638338
cpu0_L2C LOAD      ACCESS:   13174185  HIT:   10423786  MISS:    2750399
cpu0_L2C RFO       ACCESS:      17293  HIT:      12323  MISS:       4970
cpu0_L2C PREFETCH  ACCESS:   30595069  HIT:   23713435  MISS:    6881634
cpu0_L2C WRITEBACK ACCESS:    8756645  HIT:    8756645  MISS:          0
cpu0_L2C TRANSLATION ACCESS:       4616  HIT:       3281  MISS:       1335
cpu0_L2C PREFETCH  REQUESTED:   89306134  ISSUED:   82163679  USEFUL:    9058211  USELESS:      11321
cpu0_L2C AVERAGE MISS LATENCY: 119.194 cycles
LLC TOTAL     ACCESS:   29444245  HIT:   20550079  MISS:    8894166
LLC LOAD      ACCESS:     562492  HIT:      25464  MISS:     537028
LLC RFO       ACCESS:       4969  HIT:       4923  MISS:         46
LLC PREFETCH  ACCESS:   20133339  HIT:   11778191  MISS:    8355148
LLC WRITEBACK ACCESS:    8742110  HIT:    8740542  MISS:       1568
LLC TRANSLATION ACCESS:       1335  HIT:        959  MISS:        376
LLC PREFETCH  REQUESTED:          0  ISSUED:          0  USEFUL:          0  USELESS:          0
LLC AVERAGE MISS LATENCY: 525.474 cycles
Printing the final status 

DRAM Statistics
 CHANNEL 0
 RQ ROW_BUFFER_HIT:    2414217  ROW_BUFFER_MISS:    6478380
 DBUS AVG_CONGESTED_CYCLE:     3.9971
 WQ ROW_BUFFER_HIT:    1808603  ROW_BUFFER_MISS:    6928640  FULL:          0


CPU 0 Branch Prediction Accuracy: 99.8639% MPKI: 0.024533 Average ROB Occupancy at Mispredict: 188.422
Branch type MPKI
BRANCH_DIRECT_JUMP: 8.9e-05
BRANCH_INDIRECT: 0
BRANCH_CONDITIONAL: 0.024412
BRANCH_DIRECT_CALL: 1.6e-05
BRANCH_INDIRECT_CALL: 0
BRANCH_RETURN: 1.6e-05

***************** Done with 649.fotonik3d_s-1176B.champsimtrace.xz using ppf-spp-dev, on Mon Apr 18 04:02:27 CDT 2022 ******************
