Started running file 628.pop2_s-17B.champsimtrace.xz at time Sun Apr 17 21:08:58 CDT 2022 with prefetcher ppf-spp-dev

*** ChampSim Multicore Out-of-Order Simulator ***

Warmup Instructions: 200000000
Simulation Instructions: 1000000000
Number of CPUs: 1
Off-chip DRAM Size: 4 GiB Channels: 1 Width: 64-bit Data Rate: 3200 MT/s

VirtualMemory physical capacity: 8588881920 num_ppages: 2096895
VirtualMemory page size: 4096 log2_page_size: 12

CPU 0 runs /home/faculty/p/pgratz/dpc3_traces/628.pop2_s-17B.champsimtrace.xz
CPU 0 Bimodal branch predictor
Basic BTB sets: 1024 ways: 8 indirect buffer size: 4096 RAS size: 64
cpu0_L2C PPF SPP DEV Prefetcher
Heartbeat CPU 0 instructions: 10000000 cycles: 2811840 heartbeat IPC: 3.55639 cumulative IPC: 3.55639 (Simulation time: 0 hr 0 min 33 sec) 
Heartbeat CPU 0 instructions: 20000002 cycles: 5623203 heartbeat IPC: 3.55699 cumulative IPC: 3.55669 (Simulation time: 0 hr 1 min 6 sec) 
Heartbeat CPU 0 instructions: 30000004 cycles: 8433927 heartbeat IPC: 3.5578 cumulative IPC: 3.55706 (Simulation time: 0 hr 1 min 39 sec) 
Heartbeat CPU 0 instructions: 40000001 cycles: 11243134 heartbeat IPC: 3.55972 cumulative IPC: 3.55773 (Simulation time: 0 hr 2 min 12 sec) 
Heartbeat CPU 0 instructions: 50000001 cycles: 14051211 heartbeat IPC: 3.56116 cumulative IPC: 3.55841 (Simulation time: 0 hr 2 min 44 sec) 
Heartbeat CPU 0 instructions: 60000001 cycles: 16859489 heartbeat IPC: 3.5609 cumulative IPC: 3.55883 (Simulation time: 0 hr 3 min 17 sec) 
Heartbeat CPU 0 instructions: 70000000 cycles: 19663043 heartbeat IPC: 3.5669 cumulative IPC: 3.55998 (Simulation time: 0 hr 3 min 49 sec) 
Heartbeat CPU 0 instructions: 80000001 cycles: 22279953 heartbeat IPC: 3.8213 cumulative IPC: 3.59067 (Simulation time: 0 hr 4 min 18 sec) 
Heartbeat CPU 0 instructions: 90000001 cycles: 25037858 heartbeat IPC: 3.62594 cumulative IPC: 3.59456 (Simulation time: 0 hr 4 min 47 sec) 
Heartbeat CPU 0 instructions: 100000000 cycles: 27829515 heartbeat IPC: 3.5821 cumulative IPC: 3.59331 (Simulation time: 0 hr 5 min 18 sec) 
Heartbeat CPU 0 instructions: 110000003 cycles: 30492426 heartbeat IPC: 3.75529 cumulative IPC: 3.60745 (Simulation time: 0 hr 5 min 48 sec) 
Heartbeat CPU 0 instructions: 120000004 cycles: 33361467 heartbeat IPC: 3.48549 cumulative IPC: 3.59696 (Simulation time: 0 hr 6 min 13 sec) 
Heartbeat CPU 0 instructions: 130000001 cycles: 36215994 heartbeat IPC: 3.50321 cumulative IPC: 3.58957 (Simulation time: 0 hr 6 min 42 sec) 
Heartbeat CPU 0 instructions: 140000001 cycles: 39008989 heartbeat IPC: 3.58039 cumulative IPC: 3.58892 (Simulation time: 0 hr 7 min 2 sec) 
Heartbeat CPU 0 instructions: 150000001 cycles: 41712002 heartbeat IPC: 3.69958 cumulative IPC: 3.59609 (Simulation time: 0 hr 7 min 20 sec) 
Heartbeat CPU 0 instructions: 160000000 cycles: 44537484 heartbeat IPC: 3.53922 cumulative IPC: 3.59248 (Simulation time: 0 hr 7 min 39 sec) 
Heartbeat CPU 0 instructions: 170000000 cycles: 47311356 heartbeat IPC: 3.60507 cumulative IPC: 3.59322 (Simulation time: 0 hr 8 min 2 sec) 
Heartbeat CPU 0 instructions: 180000004 cycles: 50092880 heartbeat IPC: 3.59515 cumulative IPC: 3.59333 (Simulation time: 0 hr 8 min 30 sec) 
Heartbeat CPU 0 instructions: 190000003 cycles: 52902632 heartbeat IPC: 3.55903 cumulative IPC: 3.5915 (Simulation time: 0 hr 9 min 3 sec) 
Heartbeat CPU 0 instructions: 200000001 cycles: 55713032 heartbeat IPC: 3.55821 cumulative IPC: 3.58982 (Simulation time: 0 hr 9 min 36 sec) 

Warmup complete CPU 0 instructions: 200000001 cycles: 55713032 (Simulation time: 0 hr 9 min 36 sec) 

Heartbeat CPU 0 instructions: 210000002 cycles: 60134617 heartbeat IPC: 2.26163 cumulative IPC: 2.26163 (Simulation time: 0 hr 10 min 13 sec) 
Heartbeat CPU 0 instructions: 220000003 cycles: 64532173 heartbeat IPC: 2.27399 cumulative IPC: 2.26779 (Simulation time: 0 hr 10 min 51 sec) 
Heartbeat CPU 0 instructions: 230000001 cycles: 68960503 heartbeat IPC: 2.25819 cumulative IPC: 2.26458 (Simulation time: 0 hr 11 min 28 sec) 
Heartbeat CPU 0 instructions: 240000003 cycles: 73335685 heartbeat IPC: 2.28562 cumulative IPC: 2.26981 (Simulation time: 0 hr 12 min 5 sec) 
Heartbeat CPU 0 instructions: 250000001 cycles: 77588643 heartbeat IPC: 2.3513 cumulative IPC: 2.28565 (Simulation time: 0 hr 12 min 42 sec) 
Heartbeat CPU 0 instructions: 260000004 cycles: 81746340 heartbeat IPC: 2.40518 cumulative IPC: 2.30474 (Simulation time: 0 hr 13 min 14 sec) 
Heartbeat CPU 0 instructions: 270000000 cycles: 86842518 heartbeat IPC: 1.96225 cumulative IPC: 2.24867 (Simulation time: 0 hr 13 min 48 sec) 
Heartbeat CPU 0 instructions: 280000004 cycles: 92766617 heartbeat IPC: 1.68802 cumulative IPC: 2.15904 (Simulation time: 0 hr 14 min 30 sec) 
Heartbeat CPU 0 instructions: 290000000 cycles: 98738000 heartbeat IPC: 1.67465 cumulative IPC: 2.09181 (Simulation time: 0 hr 15 min 11 sec) 
Heartbeat CPU 0 instructions: 300000001 cycles: 106161900 heartbeat IPC: 1.347 cumulative IPC: 1.98221 (Simulation time: 0 hr 15 min 53 sec) 
Heartbeat CPU 0 instructions: 310000001 cycles: 111551733 heartbeat IPC: 1.85535 cumulative IPC: 1.96996 (Simulation time: 0 hr 16 min 25 sec) 
Heartbeat CPU 0 instructions: 320000004 cycles: 117442256 heartbeat IPC: 1.69764 cumulative IPC: 1.94397 (Simulation time: 0 hr 16 min 55 sec) 
Heartbeat CPU 0 instructions: 330000000 cycles: 122543370 heartbeat IPC: 1.96036 cumulative IPC: 1.94522 (Simulation time: 0 hr 17 min 22 sec) 
Heartbeat CPU 0 instructions: 340000001 cycles: 128293665 heartbeat IPC: 1.73904 cumulative IPC: 1.92889 (Simulation time: 0 hr 17 min 53 sec) 
Heartbeat CPU 0 instructions: 350000001 cycles: 133004597 heartbeat IPC: 2.12272 cumulative IPC: 1.9407 (Simulation time: 0 hr 18 min 20 sec) 
Heartbeat CPU 0 instructions: 360000002 cycles: 138631348 heartbeat IPC: 1.77722 cumulative IPC: 1.92961 (Simulation time: 0 hr 18 min 57 sec) 
Heartbeat CPU 0 instructions: 370000001 cycles: 143107812 heartbeat IPC: 2.23391 cumulative IPC: 1.9452 (Simulation time: 0 hr 19 min 34 sec) 
Heartbeat CPU 0 instructions: 380000004 cycles: 147603617 heartbeat IPC: 2.2243 cumulative IPC: 1.95885 (Simulation time: 0 hr 20 min 12 sec) 
Heartbeat CPU 0 instructions: 390000000 cycles: 152068573 heartbeat IPC: 2.23966 cumulative IPC: 1.97186 (Simulation time: 0 hr 20 min 50 sec) 
Heartbeat CPU 0 instructions: 400000002 cycles: 156557988 heartbeat IPC: 2.22746 cumulative IPC: 1.98324 (Simulation time: 0 hr 21 min 28 sec) 
Heartbeat CPU 0 instructions: 410000000 cycles: 161071578 heartbeat IPC: 2.21553 cumulative IPC: 1.99319 (Simulation time: 0 hr 22 min 6 sec) 
Heartbeat CPU 0 instructions: 420000001 cycles: 165510504 heartbeat IPC: 2.2528 cumulative IPC: 2.00369 (Simulation time: 0 hr 22 min 43 sec) 
Heartbeat CPU 0 instructions: 430000004 cycles: 169859048 heartbeat IPC: 2.29962 cumulative IPC: 2.01496 (Simulation time: 0 hr 23 min 20 sec) 
Heartbeat CPU 0 instructions: 440000003 cycles: 173772761 heartbeat IPC: 2.55512 cumulative IPC: 2.03287 (Simulation time: 0 hr 23 min 52 sec) 
Heartbeat CPU 0 instructions: 450000002 cycles: 179104802 heartbeat IPC: 1.87545 cumulative IPC: 2.02607 (Simulation time: 0 hr 24 min 28 sec) 
Heartbeat CPU 0 instructions: 460000003 cycles: 184813509 heartbeat IPC: 1.75171 cumulative IPC: 2.01394 (Simulation time: 0 hr 25 min 7 sec) 
Heartbeat CPU 0 instructions: 470000000 cycles: 190541699 heartbeat IPC: 1.74575 cumulative IPC: 2.00254 (Simulation time: 0 hr 25 min 48 sec) 
Heartbeat CPU 0 instructions: 480000002 cycles: 198072005 heartbeat IPC: 1.32797 cumulative IPC: 1.96686 (Simulation time: 0 hr 26 min 35 sec) 
Heartbeat CPU 0 instructions: 490000001 cycles: 203056272 heartbeat IPC: 2.00631 cumulative IPC: 1.96819 (Simulation time: 0 hr 27 min 6 sec) 
Heartbeat CPU 0 instructions: 500000004 cycles: 209429736 heartbeat IPC: 1.56901 cumulative IPC: 1.95164 (Simulation time: 0 hr 27 min 38 sec) 
Heartbeat CPU 0 instructions: 510000001 cycles: 213920047 heartbeat IPC: 2.22702 cumulative IPC: 1.95946 (Simulation time: 0 hr 28 min 3 sec) 
Heartbeat CPU 0 instructions: 520000002 cycles: 220213206 heartbeat IPC: 1.58903 cumulative IPC: 1.94529 (Simulation time: 0 hr 28 min 38 sec) 
Heartbeat CPU 0 instructions: 530000002 cycles: 224659589 heartbeat IPC: 2.24902 cumulative IPC: 1.95328 (Simulation time: 0 hr 29 min 3 sec) 
Heartbeat CPU 0 instructions: 540000000 cycles: 230357536 heartbeat IPC: 1.75502 cumulative IPC: 1.94681 (Simulation time: 0 hr 29 min 39 sec) 
Heartbeat CPU 0 instructions: 550000000 cycles: 234716006 heartbeat IPC: 2.29438 cumulative IPC: 1.95527 (Simulation time: 0 hr 30 min 17 sec) 
Heartbeat CPU 0 instructions: 560000004 cycles: 239072002 heartbeat IPC: 2.29569 cumulative IPC: 1.96336 (Simulation time: 0 hr 30 min 55 sec) 
Heartbeat CPU 0 instructions: 570000001 cycles: 243423428 heartbeat IPC: 2.2981 cumulative IPC: 1.97112 (Simulation time: 0 hr 31 min 34 sec) 
Heartbeat CPU 0 instructions: 580000004 cycles: 247776549 heartbeat IPC: 2.2972 cumulative IPC: 1.97851 (Simulation time: 0 hr 32 min 13 sec) 
Heartbeat CPU 0 instructions: 590000000 cycles: 252140487 heartbeat IPC: 2.29151 cumulative IPC: 1.98547 (Simulation time: 0 hr 32 min 51 sec) 
Heartbeat CPU 0 instructions: 600000002 cycles: 256487614 heartbeat IPC: 2.30037 cumulative IPC: 1.99228 (Simulation time: 0 hr 33 min 29 sec) 
Heartbeat CPU 0 instructions: 610000001 cycles: 260944931 heartbeat IPC: 2.2435 cumulative IPC: 1.99774 (Simulation time: 0 hr 34 min 7 sec) 
Heartbeat CPU 0 instructions: 620000001 cycles: 264644432 heartbeat IPC: 2.70307 cumulative IPC: 2.01023 (Simulation time: 0 hr 34 min 38 sec) 
Heartbeat CPU 0 instructions: 630000001 cycles: 270076332 heartbeat IPC: 1.84098 cumulative IPC: 2.00594 (Simulation time: 0 hr 35 min 16 sec) 
Heartbeat CPU 0 instructions: 640000004 cycles: 275147061 heartbeat IPC: 1.9721 cumulative IPC: 2.00516 (Simulation time: 0 hr 35 min 51 sec) 
Heartbeat CPU 0 instructions: 650000000 cycles: 281469400 heartbeat IPC: 1.58169 cumulative IPC: 1.9933 (Simulation time: 0 hr 36 min 34 sec) 
Heartbeat CPU 0 instructions: 660000003 cycles: 289340770 heartbeat IPC: 1.27043 cumulative IPC: 1.96894 (Simulation time: 0 hr 37 min 27 sec) 
Heartbeat CPU 0 instructions: 670000003 cycles: 294224257 heartbeat IPC: 2.04772 cumulative IPC: 1.97056 (Simulation time: 0 hr 37 min 55 sec) 
Heartbeat CPU 0 instructions: 680000004 cycles: 301361955 heartbeat IPC: 1.40101 cumulative IPC: 1.95401 (Simulation time: 0 hr 38 min 32 sec) 
Heartbeat CPU 0 instructions: 690000000 cycles: 305199181 heartbeat IPC: 2.60605 cumulative IPC: 1.96404 (Simulation time: 0 hr 38 min 51 sec) 
Heartbeat CPU 0 instructions: 700000001 cycles: 310492596 heartbeat IPC: 1.88914 cumulative IPC: 1.96248 (Simulation time: 0 hr 39 min 22 sec) 
Heartbeat CPU 0 instructions: 710000002 cycles: 316304413 heartbeat IPC: 1.72063 cumulative IPC: 1.95709 (Simulation time: 0 hr 39 min 53 sec) 
Heartbeat CPU 0 instructions: 720000001 cycles: 321398843 heartbeat IPC: 1.96293 cumulative IPC: 1.9572 (Simulation time: 0 hr 40 min 24 sec) 
Heartbeat CPU 0 instructions: 730000001 cycles: 326503916 heartbeat IPC: 1.95884 cumulative IPC: 1.95723 (Simulation time: 0 hr 41 min 4 sec) 
Heartbeat CPU 0 instructions: 740000000 cycles: 330813906 heartbeat IPC: 2.32019 cumulative IPC: 1.96292 (Simulation time: 0 hr 41 min 42 sec) 
Heartbeat CPU 0 instructions: 750000003 cycles: 335162745 heartbeat IPC: 2.29946 cumulative IPC: 1.96815 (Simulation time: 0 hr 42 min 21 sec) 
Heartbeat CPU 0 instructions: 760000003 cycles: 339528244 heartbeat IPC: 2.29069 cumulative IPC: 1.97311 (Simulation time: 0 hr 42 min 59 sec) 
Heartbeat CPU 0 instructions: 770000001 cycles: 343893049 heartbeat IPC: 2.29105 cumulative IPC: 1.97793 (Simulation time: 0 hr 43 min 38 sec) 
Heartbeat CPU 0 instructions: 780000003 cycles: 348305382 heartbeat IPC: 2.26638 cumulative IPC: 1.98228 (Simulation time: 0 hr 44 min 16 sec) 
Heartbeat CPU 0 instructions: 790000000 cycles: 352801303 heartbeat IPC: 2.22424 cumulative IPC: 1.98594 (Simulation time: 0 hr 44 min 54 sec) 
Heartbeat CPU 0 instructions: 800000002 cycles: 356815535 heartbeat IPC: 2.49114 cumulative IPC: 1.99268 (Simulation time: 0 hr 45 min 28 sec) 
Heartbeat CPU 0 instructions: 810000001 cycles: 361401055 heartbeat IPC: 2.18078 cumulative IPC: 1.9955 (Simulation time: 0 hr 46 min 2 sec) 
Heartbeat CPU 0 instructions: 820000002 cycles: 366467212 heartbeat IPC: 1.97388 cumulative IPC: 1.99515 (Simulation time: 0 hr 46 min 37 sec) 
Heartbeat CPU 0 instructions: 830000002 cycles: 372565057 heartbeat IPC: 1.63992 cumulative IPC: 1.98831 (Simulation time: 0 hr 47 min 20 sec) 
Heartbeat CPU 0 instructions: 840000001 cycles: 378374742 heartbeat IPC: 1.72126 cumulative IPC: 1.9835 (Simulation time: 0 hr 48 min 2 sec) 
Heartbeat CPU 0 instructions: 850000002 cycles: 385672840 heartbeat IPC: 1.37022 cumulative IPC: 1.96994 (Simulation time: 0 hr 48 min 42 sec) 
Heartbeat CPU 0 instructions: 860000000 cycles: 391255339 heartbeat IPC: 1.79131 cumulative IPC: 1.96697 (Simulation time: 0 hr 49 min 17 sec) 
Heartbeat CPU 0 instructions: 870000001 cycles: 397040778 heartbeat IPC: 1.72848 cumulative IPC: 1.96292 (Simulation time: 0 hr 49 min 46 sec) 
Heartbeat CPU 0 instructions: 880000000 cycles: 401960885 heartbeat IPC: 2.03248 cumulative IPC: 1.96391 (Simulation time: 0 hr 50 min 15 sec) 
Heartbeat CPU 0 instructions: 890000001 cycles: 407927737 heartbeat IPC: 1.67593 cumulative IPC: 1.95903 (Simulation time: 0 hr 50 min 46 sec) 
Heartbeat CPU 0 instructions: 900000004 cycles: 412641861 heartbeat IPC: 2.12129 cumulative IPC: 1.96118 (Simulation time: 0 hr 51 min 15 sec) 
Heartbeat CPU 0 instructions: 910000004 cycles: 418032518 heartbeat IPC: 1.85506 cumulative IPC: 1.9596 (Simulation time: 0 hr 51 min 52 sec) 
Heartbeat CPU 0 instructions: 920000004 cycles: 422331022 heartbeat IPC: 2.32639 cumulative IPC: 1.9639 (Simulation time: 0 hr 52 min 31 sec) 
Heartbeat CPU 0 instructions: 930000000 cycles: 426604716 heartbeat IPC: 2.3399 cumulative IPC: 1.96823 (Simulation time: 0 hr 53 min 10 sec) 
Heartbeat CPU 0 instructions: 940000004 cycles: 430871991 heartbeat IPC: 2.34342 cumulative IPC: 1.9725 (Simulation time: 0 hr 53 min 49 sec) 
Heartbeat CPU 0 instructions: 950000000 cycles: 435117965 heartbeat IPC: 2.35517 cumulative IPC: 1.97678 (Simulation time: 0 hr 54 min 27 sec) 
Heartbeat CPU 0 instructions: 960000003 cycles: 439367942 heartbeat IPC: 2.35295 cumulative IPC: 1.98095 (Simulation time: 0 hr 55 min 6 sec) 
Heartbeat CPU 0 instructions: 970000002 cycles: 443754795 heartbeat IPC: 2.27954 cumulative IPC: 1.98432 (Simulation time: 0 hr 55 min 44 sec) 
Heartbeat CPU 0 instructions: 980000003 cycles: 448254383 heartbeat IPC: 2.22243 cumulative IPC: 1.98705 (Simulation time: 0 hr 56 min 21 sec) 
Heartbeat CPU 0 instructions: 990000000 cycles: 452079453 heartbeat IPC: 2.61433 cumulative IPC: 1.99311 (Simulation time: 0 hr 56 min 53 sec) 
Heartbeat CPU 0 instructions: 1000000001 cycles: 457440317 heartbeat IPC: 1.86537 cumulative IPC: 1.9914 (Simulation time: 0 hr 57 min 28 sec) 
Heartbeat CPU 0 instructions: 1010000003 cycles: 463307974 heartbeat IPC: 1.70426 cumulative IPC: 1.98727 (Simulation time: 0 hr 58 min 8 sec) 
Heartbeat CPU 0 instructions: 1020000000 cycles: 468918041 heartbeat IPC: 1.78251 cumulative IPC: 1.98449 (Simulation time: 0 hr 58 min 48 sec) 
Heartbeat CPU 0 instructions: 1030000002 cycles: 476639368 heartbeat IPC: 1.29511 cumulative IPC: 1.97184 (Simulation time: 0 hr 59 min 36 sec) 
Heartbeat CPU 0 instructions: 1040000000 cycles: 481791884 heartbeat IPC: 1.9408 cumulative IPC: 1.97147 (Simulation time: 1 hr 0 min 7 sec) 
Heartbeat CPU 0 instructions: 1050000000 cycles: 488465191 heartbeat IPC: 1.49851 cumulative IPC: 1.96417 (Simulation time: 1 hr 0 min 40 sec) 
Heartbeat CPU 0 instructions: 1060000003 cycles: 492756084 heartbeat IPC: 2.33052 cumulative IPC: 1.96777 (Simulation time: 1 hr 1 min 3 sec) 
Heartbeat CPU 0 instructions: 1070000000 cycles: 499299277 heartbeat IPC: 1.52831 cumulative IPC: 1.96129 (Simulation time: 1 hr 1 min 40 sec) 
Heartbeat CPU 0 instructions: 1080000002 cycles: 503779738 heartbeat IPC: 2.23191 cumulative IPC: 1.96399 (Simulation time: 1 hr 2 min 5 sec) 
Heartbeat CPU 0 instructions: 1090000001 cycles: 509274363 heartbeat IPC: 1.81996 cumulative IPC: 1.96225 (Simulation time: 1 hr 2 min 39 sec) 
Heartbeat CPU 0 instructions: 1100000000 cycles: 513793354 heartbeat IPC: 2.21288 cumulative IPC: 1.96472 (Simulation time: 1 hr 3 min 18 sec) 
Heartbeat CPU 0 instructions: 1110000001 cycles: 518086076 heartbeat IPC: 2.32952 cumulative IPC: 1.96811 (Simulation time: 1 hr 3 min 57 sec) 
Heartbeat CPU 0 instructions: 1120000003 cycles: 522375176 heartbeat IPC: 2.33149 cumulative IPC: 1.97145 (Simulation time: 1 hr 4 min 35 sec) 
Heartbeat CPU 0 instructions: 1130000002 cycles: 526688004 heartbeat IPC: 2.31866 cumulative IPC: 1.97463 (Simulation time: 1 hr 5 min 14 sec) 
Heartbeat CPU 0 instructions: 1140000000 cycles: 530981369 heartbeat IPC: 2.32917 cumulative IPC: 1.97783 (Simulation time: 1 hr 5 min 52 sec) 
Heartbeat CPU 0 instructions: 1150000001 cycles: 535304125 heartbeat IPC: 2.31334 cumulative IPC: 1.98085 (Simulation time: 1 hr 6 min 30 sec) 
Heartbeat CPU 0 instructions: 1160000000 cycles: 539845712 heartbeat IPC: 2.20187 cumulative IPC: 1.98293 (Simulation time: 1 hr 7 min 8 sec) 
Heartbeat CPU 0 instructions: 1170000003 cycles: 543692262 heartbeat IPC: 2.59973 cumulative IPC: 1.98779 (Simulation time: 1 hr 7 min 40 sec) 
Heartbeat CPU 0 instructions: 1180000004 cycles: 548724731 heartbeat IPC: 1.9871 cumulative IPC: 1.98778 (Simulation time: 1 hr 8 min 16 sec) 
Heartbeat CPU 0 instructions: 1190000001 cycles: 553689831 heartbeat IPC: 2.01406 cumulative IPC: 1.98804 (Simulation time: 1 hr 8 min 50 sec) 
Heartbeat CPU 0 instructions: 1200000003 cycles: 560307432 heartbeat IPC: 1.51112 cumulative IPC: 1.98179 (Simulation time: 1 hr 9 min 34 sec) 
Finished CPU 0 instructions: 1000000002 cycles: 504594400 cumulative IPC: 1.98179 (Simulation time: 1 hr 9 min 34 sec) 

ChampSim completed all CPUs

Region of Interest Statistics

CPU 0 cumulative IPC: 1.98179 instructions: 1000000002 cycles: 504594400
cpu0_DTLB TOTAL     ACCESS:  195462915  HIT:  194993563  MISS:     469352
cpu0_DTLB LOAD      ACCESS:  157216070  HIT:  156831689  MISS:     384381
cpu0_DTLB RFO       ACCESS:   38246845  HIT:   38161874  MISS:      84971
cpu0_DTLB PREFETCH  ACCESS:          0  HIT:          0  MISS:          0
cpu0_DTLB WRITEBACK ACCESS:          0  HIT:          0  MISS:          0
cpu0_DTLB TRANSLATION ACCESS:          0  HIT:          0  MISS:          0
cpu0_DTLB PREFETCH  REQUESTED:          0  ISSUED:          0  USEFUL:          0  USELESS:          0
cpu0_DTLB AVERAGE MISS LATENCY: 24.8461 cycles
cpu0_ITLB TOTAL     ACCESS:   98388295  HIT:   98366894  MISS:      21401
cpu0_ITLB LOAD      ACCESS:   98388295  HIT:   98366894  MISS:      21401
cpu0_ITLB RFO       ACCESS:          0  HIT:          0  MISS:          0
cpu0_ITLB PREFETCH  ACCESS:          0  HIT:          0  MISS:          0
cpu0_ITLB WRITEBACK ACCESS:          0  HIT:          0  MISS:          0
cpu0_ITLB TRANSLATION ACCESS:          0  HIT:          0  MISS:          0
cpu0_ITLB PREFETCH  REQUESTED:          0  ISSUED:          0  USEFUL:          0  USELESS:          0
cpu0_ITLB AVERAGE MISS LATENCY: 12.1724 cycles
cpu0_L1I TOTAL     ACCESS:    6303357  HIT:    5806726  MISS:     496631
cpu0_L1I LOAD      ACCESS:    6303357  HIT:    5806726  MISS:     496631
cpu0_L1I RFO       ACCESS:          0  HIT:          0  MISS:          0
cpu0_L1I PREFETCH  ACCESS:          0  HIT:          0  MISS:          0
cpu0_L1I WRITEBACK ACCESS:          0  HIT:          0  MISS:          0
cpu0_L1I TRANSLATION ACCESS:          0  HIT:          0  MISS:          0
cpu0_L1I PREFETCH  REQUESTED:          0  ISSUED:          0  USEFUL:          0  USELESS:          0
cpu0_L1I AVERAGE MISS LATENCY: 28.2727 cycles
cpu0_STLB TOTAL     ACCESS:     490753  HIT:     464561  MISS:      26192
cpu0_STLB LOAD      ACCESS:     405782  HIT:     395522  MISS:      10260
cpu0_STLB RFO       ACCESS:      84971  HIT:      69039  MISS:      15932
cpu0_STLB PREFETCH  ACCESS:          0  HIT:          0  MISS:          0
cpu0_STLB WRITEBACK ACCESS:          0  HIT:          0  MISS:          0
cpu0_STLB TRANSLATION ACCESS:          0  HIT:          0  MISS:          0
cpu0_STLB PREFETCH  REQUESTED:          0  ISSUED:          0  USEFUL:          0  USELESS:          0
cpu0_STLB AVERAGE MISS LATENCY: 248.051 cycles
cpu0_L1D TOTAL     ACCESS:  167796071  HIT:  153186840  MISS:   14609231
cpu0_L1D LOAD      ACCESS:  114817107  HIT:  105237895  MISS:    9579212
cpu0_L1D RFO       ACCESS:   52952866  HIT:   47935187  MISS:    5017679
cpu0_L1D PREFETCH  ACCESS:          0  HIT:          0  MISS:          0
cpu0_L1D WRITEBACK ACCESS:          0  HIT:          0  MISS:          0
cpu0_L1D TRANSLATION ACCESS:      26098  HIT:      13758  MISS:      12340
cpu0_L1D PREFETCH  REQUESTED:          0  ISSUED:          0  USEFUL:          0  USELESS:          0
cpu0_L1D AVERAGE MISS LATENCY: 95.1397 cycles
cpu0_L2C TOTAL     ACCESS:   38789419  HIT:   31887058  MISS:    6902361
cpu0_L2C LOAD      ACCESS:   10074533  HIT:    8390261  MISS:    1684272
cpu0_L2C RFO       ACCESS:    5017245  HIT:    2867671  MISS:    2149574
cpu0_L2C PREFETCH  ACCESS:   17150109  HIT:   14090939  MISS:    3059170
cpu0_L2C WRITEBACK ACCESS:    6535192  HIT:    6529842  MISS:       5350
cpu0_L2C TRANSLATION ACCESS:      12340  HIT:       8345  MISS:       3995
cpu0_L2C PREFETCH  REQUESTED:   34810738  ISSUED:   28642041  USEFUL:    3684398  USELESS:     210020
cpu0_L2C AVERAGE MISS LATENCY: 190.78 cycles
LLC TOTAL     ACCESS:   15769857  HIT:   12094495  MISS:    3675362
LLC LOAD      ACCESS:     849393  HIT:     651269  MISS:     198124
LLC RFO       ACCESS:    2149431  HIT:     871147  MISS:    1278284
LLC PREFETCH  ACCESS:    9674867  HIT:    7505957  MISS:    2168910
LLC WRITEBACK ACCESS:    3092171  HIT:    3062698  MISS:      29473
LLC TRANSLATION ACCESS:       3995  HIT:       3424  MISS:        571
LLC PREFETCH  REQUESTED:          0  ISSUED:          0  USEFUL:          0  USELESS:          0
LLC AVERAGE MISS LATENCY: 589.486 cycles
Printing the final status 

DRAM Statistics
 CHANNEL 0
 RQ ROW_BUFFER_HIT:    1184927  ROW_BUFFER_MISS:    2459906
 DBUS AVG_CONGESTED_CYCLE:    3.95673
 WQ ROW_BUFFER_HIT:     251074  ROW_BUFFER_MISS:    1533386  FULL:        957


CPU 0 Branch Prediction Accuracy: 95.9781% MPKI: 6.11584 Average ROB Occupancy at Mispredict: 109.832
Branch type MPKI
BRANCH_DIRECT_JUMP: 1.4e-05
BRANCH_INDIRECT: 0.000694
BRANCH_CONDITIONAL: 6.11512
BRANCH_DIRECT_CALL: 1.1e-05
BRANCH_INDIRECT_CALL: 0
BRANCH_RETURN: 0

***************** Done with 628.pop2_s-17B.champsimtrace.xz using ppf-spp-dev, on Sun Apr 17 22:18:32 CDT 2022 ******************
