Started running file 621.wrf_s-575B.champsimtrace.xz at time Mon Apr 18 01:38:26 CDT 2022 with prefetcher ppf-spp-dev

*** ChampSim Multicore Out-of-Order Simulator ***

Warmup Instructions: 200000000
Simulation Instructions: 1000000000
Number of CPUs: 1
Off-chip DRAM Size: 4 GiB Channels: 1 Width: 64-bit Data Rate: 3200 MT/s

VirtualMemory physical capacity: 8588881920 num_ppages: 2096895
VirtualMemory page size: 4096 log2_page_size: 12

CPU 0 runs /home/faculty/p/pgratz/dpc3_traces/621.wrf_s-575B.champsimtrace.xz
CPU 0 Bimodal branch predictor
Basic BTB sets: 1024 ways: 8 indirect buffer size: 4096 RAS size: 64
cpu0_L2C PPF SPP DEV Prefetcher
Heartbeat CPU 0 instructions: 10000003 cycles: 2501553 heartbeat IPC: 3.99752 cumulative IPC: 3.99752 (Simulation time: 0 hr 0 min 28 sec) 
Heartbeat CPU 0 instructions: 20000002 cycles: 5002990 heartbeat IPC: 3.9977 cumulative IPC: 3.99761 (Simulation time: 0 hr 0 min 56 sec) 
Heartbeat CPU 0 instructions: 30000002 cycles: 7504423 heartbeat IPC: 3.99771 cumulative IPC: 3.99764 (Simulation time: 0 hr 1 min 24 sec) 
Heartbeat CPU 0 instructions: 40000003 cycles: 10005853 heartbeat IPC: 3.99771 cumulative IPC: 3.99766 (Simulation time: 0 hr 1 min 52 sec) 
Heartbeat CPU 0 instructions: 50000002 cycles: 12507285 heartbeat IPC: 3.99771 cumulative IPC: 3.99767 (Simulation time: 0 hr 2 min 20 sec) 
Heartbeat CPU 0 instructions: 60000002 cycles: 15008709 heartbeat IPC: 3.99772 cumulative IPC: 3.99768 (Simulation time: 0 hr 2 min 48 sec) 
Heartbeat CPU 0 instructions: 70000003 cycles: 17511547 heartbeat IPC: 3.99546 cumulative IPC: 3.99736 (Simulation time: 0 hr 3 min 16 sec) 
Heartbeat CPU 0 instructions: 80000000 cycles: 20012960 heartbeat IPC: 3.99774 cumulative IPC: 3.99741 (Simulation time: 0 hr 3 min 44 sec) 
Heartbeat CPU 0 instructions: 90000002 cycles: 22514372 heartbeat IPC: 3.99774 cumulative IPC: 3.99745 (Simulation time: 0 hr 4 min 12 sec) 
Heartbeat CPU 0 instructions: 100000003 cycles: 25015776 heartbeat IPC: 3.99776 cumulative IPC: 3.99748 (Simulation time: 0 hr 4 min 40 sec) 
Heartbeat CPU 0 instructions: 110000002 cycles: 27517177 heartbeat IPC: 3.99776 cumulative IPC: 3.9975 (Simulation time: 0 hr 5 min 8 sec) 
Heartbeat CPU 0 instructions: 120000002 cycles: 30018580 heartbeat IPC: 3.99776 cumulative IPC: 3.99752 (Simulation time: 0 hr 5 min 35 sec) 
Heartbeat CPU 0 instructions: 130000000 cycles: 32519979 heartbeat IPC: 3.99776 cumulative IPC: 3.99754 (Simulation time: 0 hr 6 min 3 sec) 
Heartbeat CPU 0 instructions: 140000003 cycles: 35022781 heartbeat IPC: 3.99552 cumulative IPC: 3.9974 (Simulation time: 0 hr 6 min 30 sec) 
Heartbeat CPU 0 instructions: 150000003 cycles: 37524183 heartbeat IPC: 3.99776 cumulative IPC: 3.99742 (Simulation time: 0 hr 6 min 58 sec) 
Heartbeat CPU 0 instructions: 160000000 cycles: 40025587 heartbeat IPC: 3.99775 cumulative IPC: 3.99744 (Simulation time: 0 hr 7 min 25 sec) 
Heartbeat CPU 0 instructions: 170000003 cycles: 42526993 heartbeat IPC: 3.99775 cumulative IPC: 3.99746 (Simulation time: 0 hr 7 min 52 sec) 
Heartbeat CPU 0 instructions: 180000001 cycles: 45028401 heartbeat IPC: 3.99775 cumulative IPC: 3.99748 (Simulation time: 0 hr 8 min 20 sec) 
Heartbeat CPU 0 instructions: 190000000 cycles: 47529811 heartbeat IPC: 3.99774 cumulative IPC: 3.99749 (Simulation time: 0 hr 8 min 47 sec) 
Heartbeat CPU 0 instructions: 200000000 cycles: 50032642 heartbeat IPC: 3.99548 cumulative IPC: 3.99739 (Simulation time: 0 hr 9 min 14 sec) 

Warmup complete CPU 0 instructions: 200000004 cycles: 50032643 (Simulation time: 0 hr 9 min 14 sec) 

Heartbeat CPU 0 instructions: 210000000 cycles: 59580359 heartbeat IPC: 1.04737 cumulative IPC: 1.04737 (Simulation time: 0 hr 9 min 51 sec) 
Heartbeat CPU 0 instructions: 220000001 cycles: 69094793 heartbeat IPC: 1.05103 cumulative IPC: 1.0492 (Simulation time: 0 hr 10 min 29 sec) 
Heartbeat CPU 0 instructions: 230000002 cycles: 78674521 heartbeat IPC: 1.04387 cumulative IPC: 1.04742 (Simulation time: 0 hr 11 min 6 sec) 
Heartbeat CPU 0 instructions: 240000003 cycles: 88323371 heartbeat IPC: 1.03639 cumulative IPC: 1.04464 (Simulation time: 0 hr 11 min 43 sec) 
Heartbeat CPU 0 instructions: 250000003 cycles: 97993065 heartbeat IPC: 1.03416 cumulative IPC: 1.04253 (Simulation time: 0 hr 12 min 20 sec) 
Heartbeat CPU 0 instructions: 260000000 cycles: 107650913 heartbeat IPC: 1.03543 cumulative IPC: 1.04134 (Simulation time: 0 hr 12 min 58 sec) 
Heartbeat CPU 0 instructions: 270000002 cycles: 117303170 heartbeat IPC: 1.03603 cumulative IPC: 1.04057 (Simulation time: 0 hr 13 min 35 sec) 
Heartbeat CPU 0 instructions: 280000002 cycles: 126945326 heartbeat IPC: 1.03711 cumulative IPC: 1.04014 (Simulation time: 0 hr 14 min 12 sec) 
Heartbeat CPU 0 instructions: 290000000 cycles: 136639627 heartbeat IPC: 1.03153 cumulative IPC: 1.03918 (Simulation time: 0 hr 14 min 50 sec) 
Heartbeat CPU 0 instructions: 300000001 cycles: 146314126 heartbeat IPC: 1.03365 cumulative IPC: 1.03862 (Simulation time: 0 hr 15 min 27 sec) 
Heartbeat CPU 0 instructions: 310000003 cycles: 155914867 heartbeat IPC: 1.04159 cumulative IPC: 1.03889 (Simulation time: 0 hr 16 min 5 sec) 
Heartbeat CPU 0 instructions: 320000002 cycles: 165669172 heartbeat IPC: 1.02519 cumulative IPC: 1.03773 (Simulation time: 0 hr 16 min 42 sec) 
Heartbeat CPU 0 instructions: 330000002 cycles: 175354815 heartbeat IPC: 1.03246 cumulative IPC: 1.03733 (Simulation time: 0 hr 17 min 19 sec) 
Heartbeat CPU 0 instructions: 340000001 cycles: 183124911 heartbeat IPC: 1.28699 cumulative IPC: 1.0519 (Simulation time: 0 hr 18 min 5 sec) 
Heartbeat CPU 0 instructions: 350000001 cycles: 190682271 heartbeat IPC: 1.32321 cumulative IPC: 1.06648 (Simulation time: 0 hr 18 min 46 sec) 
Heartbeat CPU 0 instructions: 360000001 cycles: 198484625 heartbeat IPC: 1.28166 cumulative IPC: 1.07779 (Simulation time: 0 hr 19 min 27 sec) 
Heartbeat CPU 0 instructions: 370000002 cycles: 206309208 heartbeat IPC: 1.27802 cumulative IPC: 1.08782 (Simulation time: 0 hr 20 min 8 sec) 
Heartbeat CPU 0 instructions: 380000000 cycles: 214181441 heartbeat IPC: 1.27029 cumulative IPC: 1.09657 (Simulation time: 0 hr 20 min 49 sec) 
Heartbeat CPU 0 instructions: 390000000 cycles: 232704413 heartbeat IPC: 0.53987 cumulative IPC: 1.04012 (Simulation time: 0 hr 22 min 51 sec) 
Heartbeat CPU 0 instructions: 400000000 cycles: 238457000 heartbeat IPC: 1.73835 cumulative IPC: 1.06143 (Simulation time: 0 hr 23 min 37 sec) 
Heartbeat CPU 0 instructions: 410000002 cycles: 244041731 heartbeat IPC: 1.7906 cumulative IPC: 1.08242 (Simulation time: 0 hr 24 min 23 sec) 
Heartbeat CPU 0 instructions: 420000001 cycles: 249431546 heartbeat IPC: 1.85535 cumulative IPC: 1.10332 (Simulation time: 0 hr 25 min 8 sec) 
Heartbeat CPU 0 instructions: 430000000 cycles: 254909908 heartbeat IPC: 1.82536 cumulative IPC: 1.12262 (Simulation time: 0 hr 25 min 53 sec) 
Heartbeat CPU 0 instructions: 440000000 cycles: 260418730 heartbeat IPC: 1.81527 cumulative IPC: 1.14076 (Simulation time: 0 hr 26 min 38 sec) 
Heartbeat CPU 0 instructions: 450000001 cycles: 265888658 heartbeat IPC: 1.82818 cumulative IPC: 1.15818 (Simulation time: 0 hr 27 min 22 sec) 
Heartbeat CPU 0 instructions: 460000001 cycles: 271288155 heartbeat IPC: 1.85202 cumulative IPC: 1.17511 (Simulation time: 0 hr 28 min 7 sec) 
Heartbeat CPU 0 instructions: 470000003 cycles: 276462591 heartbeat IPC: 1.93258 cumulative IPC: 1.19242 (Simulation time: 0 hr 28 min 53 sec) 
Heartbeat CPU 0 instructions: 480000001 cycles: 281864818 heartbeat IPC: 1.85109 cumulative IPC: 1.20777 (Simulation time: 0 hr 29 min 38 sec) 
Heartbeat CPU 0 instructions: 490000002 cycles: 288387991 heartbeat IPC: 1.533 cumulative IPC: 1.21667 (Simulation time: 0 hr 30 min 29 sec) 
Heartbeat CPU 0 instructions: 500000001 cycles: 295005740 heartbeat IPC: 1.51109 cumulative IPC: 1.22462 (Simulation time: 0 hr 31 min 21 sec) 
Heartbeat CPU 0 instructions: 510000002 cycles: 301640456 heartbeat IPC: 1.50722 cumulative IPC: 1.23208 (Simulation time: 0 hr 32 min 14 sec) 
Heartbeat CPU 0 instructions: 520000001 cycles: 308156790 heartbeat IPC: 1.53461 cumulative IPC: 1.23971 (Simulation time: 0 hr 33 min 6 sec) 
Heartbeat CPU 0 instructions: 530000000 cycles: 314942040 heartbeat IPC: 1.47378 cumulative IPC: 1.24571 (Simulation time: 0 hr 33 min 59 sec) 
Heartbeat CPU 0 instructions: 540000002 cycles: 321742245 heartbeat IPC: 1.47054 cumulative IPC: 1.25134 (Simulation time: 0 hr 34 min 51 sec) 
Heartbeat CPU 0 instructions: 550000003 cycles: 328539354 heartbeat IPC: 1.47121 cumulative IPC: 1.2567 (Simulation time: 0 hr 35 min 43 sec) 
Heartbeat CPU 0 instructions: 560000000 cycles: 335110954 heartbeat IPC: 1.5217 cumulative IPC: 1.26281 (Simulation time: 0 hr 36 min 35 sec) 
Heartbeat CPU 0 instructions: 570000004 cycles: 341770212 heartbeat IPC: 1.50167 cumulative IPC: 1.26826 (Simulation time: 0 hr 37 min 27 sec) 
Heartbeat CPU 0 instructions: 580000002 cycles: 348489994 heartbeat IPC: 1.48814 cumulative IPC: 1.27321 (Simulation time: 0 hr 38 min 20 sec) 
Heartbeat CPU 0 instructions: 590000000 cycles: 355247808 heartbeat IPC: 1.47977 cumulative IPC: 1.27779 (Simulation time: 0 hr 39 min 12 sec) 
Heartbeat CPU 0 instructions: 600000001 cycles: 361993070 heartbeat IPC: 1.48252 cumulative IPC: 1.28221 (Simulation time: 0 hr 40 min 4 sec) 
Heartbeat CPU 0 instructions: 610000003 cycles: 368585515 heartbeat IPC: 1.51689 cumulative IPC: 1.28707 (Simulation time: 0 hr 40 min 56 sec) 
Heartbeat CPU 0 instructions: 620000004 cycles: 382616032 heartbeat IPC: 0.712732 cumulative IPC: 1.26284 (Simulation time: 0 hr 42 min 31 sec) 
Heartbeat CPU 0 instructions: 630000004 cycles: 396381903 heartbeat IPC: 0.726434 cumulative IPC: 1.24152 (Simulation time: 0 hr 43 min 56 sec) 
Heartbeat CPU 0 instructions: 640000002 cycles: 408591231 heartbeat IPC: 0.819046 cumulative IPC: 1.22714 (Simulation time: 0 hr 45 min 16 sec) 
Heartbeat CPU 0 instructions: 650000002 cycles: 424705436 heartbeat IPC: 0.62057 cumulative IPC: 1.20105 (Simulation time: 0 hr 46 min 54 sec) 
Heartbeat CPU 0 instructions: 660000001 cycles: 437380569 heartbeat IPC: 0.788946 cumulative IPC: 1.18756 (Simulation time: 0 hr 48 min 9 sec) 
Heartbeat CPU 0 instructions: 670000002 cycles: 445800721 heartbeat IPC: 1.18763 cumulative IPC: 1.18756 (Simulation time: 0 hr 49 min 16 sec) 
Heartbeat CPU 0 instructions: 680000001 cycles: 469108617 heartbeat IPC: 0.429039 cumulative IPC: 1.14538 (Simulation time: 0 hr 51 min 38 sec) 
Heartbeat CPU 0 instructions: 690000000 cycles: 473304799 heartbeat IPC: 2.38312 cumulative IPC: 1.15765 (Simulation time: 0 hr 52 min 30 sec) 
Heartbeat CPU 0 instructions: 700000004 cycles: 477867007 heartbeat IPC: 2.19192 cumulative IPC: 1.16868 (Simulation time: 0 hr 53 min 25 sec) 
Heartbeat CPU 0 instructions: 710000000 cycles: 482163332 heartbeat IPC: 2.32757 cumulative IPC: 1.1802 (Simulation time: 0 hr 54 min 16 sec) 
Heartbeat CPU 0 instructions: 720000001 cycles: 486278201 heartbeat IPC: 2.43021 cumulative IPC: 1.19199 (Simulation time: 0 hr 55 min 1 sec) 
Heartbeat CPU 0 instructions: 730000004 cycles: 490732845 heartbeat IPC: 2.24485 cumulative IPC: 1.20263 (Simulation time: 0 hr 55 min 50 sec) 
Heartbeat CPU 0 instructions: 740000004 cycles: 496092248 heartbeat IPC: 1.86588 cumulative IPC: 1.2106 (Simulation time: 0 hr 56 min 40 sec) 
Heartbeat CPU 0 instructions: 750000004 cycles: 506621978 heartbeat IPC: 0.949692 cumulative IPC: 1.20458 (Simulation time: 0 hr 58 min 1 sec) 
Heartbeat CPU 0 instructions: 760000000 cycles: 516162038 heartbeat IPC: 1.04821 cumulative IPC: 1.20138 (Simulation time: 0 hr 59 min 16 sec) 
Heartbeat CPU 0 instructions: 770000001 cycles: 525090423 heartbeat IPC: 1.12002 cumulative IPC: 1.19985 (Simulation time: 1 hr 0 min 25 sec) 
Heartbeat CPU 0 instructions: 780000000 cycles: 530677000 heartbeat IPC: 1.79 cumulative IPC: 1.20671 (Simulation time: 1 hr 1 min 19 sec) 
Heartbeat CPU 0 instructions: 790000003 cycles: 535748662 heartbeat IPC: 1.97174 cumulative IPC: 1.2147 (Simulation time: 1 hr 2 min 10 sec) 
Heartbeat CPU 0 instructions: 800000003 cycles: 545061698 heartbeat IPC: 1.07376 cumulative IPC: 1.21205 (Simulation time: 1 hr 3 min 24 sec) 
Heartbeat CPU 0 instructions: 810000000 cycles: 555134963 heartbeat IPC: 0.992727 cumulative IPC: 1.20768 (Simulation time: 1 hr 4 min 52 sec) 
Heartbeat CPU 0 instructions: 820000002 cycles: 585226401 heartbeat IPC: 0.332321 cumulative IPC: 1.15846 (Simulation time: 1 hr 7 min 26 sec) 
Heartbeat CPU 0 instructions: 830000003 cycles: 598122967 heartbeat IPC: 0.7754 cumulative IPC: 1.14945 (Simulation time: 1 hr 8 min 54 sec) 
Heartbeat CPU 0 instructions: 840000000 cycles: 609192563 heartbeat IPC: 0.903375 cumulative IPC: 1.14457 (Simulation time: 1 hr 10 min 17 sec) 
Heartbeat CPU 0 instructions: 850000004 cycles: 632858678 heartbeat IPC: 0.422545 cumulative IPC: 1.11526 (Simulation time: 1 hr 12 min 39 sec) 
Heartbeat CPU 0 instructions: 860000002 cycles: 647037416 heartbeat IPC: 0.705281 cumulative IPC: 1.10552 (Simulation time: 1 hr 14 min 16 sec) 
Heartbeat CPU 0 instructions: 870000004 cycles: 651037872 heartbeat IPC: 2.49972 cumulative IPC: 1.1148 (Simulation time: 1 hr 14 min 59 sec) 
Heartbeat CPU 0 instructions: 880000002 cycles: 659314057 heartbeat IPC: 1.20829 cumulative IPC: 1.11607 (Simulation time: 1 hr 16 min 3 sec) 
Heartbeat CPU 0 instructions: 890000002 cycles: 663507208 heartbeat IPC: 2.38484 cumulative IPC: 1.12474 (Simulation time: 1 hr 16 min 47 sec) 
Heartbeat CPU 0 instructions: 900000002 cycles: 670908305 heartbeat IPC: 1.35115 cumulative IPC: 1.12744 (Simulation time: 1 hr 17 min 49 sec) 
Heartbeat CPU 0 instructions: 910000003 cycles: 675118977 heartbeat IPC: 2.37492 cumulative IPC: 1.13584 (Simulation time: 1 hr 18 min 33 sec) 
Heartbeat CPU 0 instructions: 920000004 cycles: 682339405 heartbeat IPC: 1.38496 cumulative IPC: 1.13869 (Simulation time: 1 hr 19 min 33 sec) 
Heartbeat CPU 0 instructions: 930000000 cycles: 686683820 heartbeat IPC: 2.30181 cumulative IPC: 1.14662 (Simulation time: 1 hr 20 min 19 sec) 
Heartbeat CPU 0 instructions: 940000003 cycles: 693734558 heartbeat IPC: 1.41829 cumulative IPC: 1.1496 (Simulation time: 1 hr 21 min 18 sec) 
Heartbeat CPU 0 instructions: 950000004 cycles: 698236676 heartbeat IPC: 2.22118 cumulative IPC: 1.15704 (Simulation time: 1 hr 22 min 4 sec) 
Heartbeat CPU 0 instructions: 960000001 cycles: 705760863 heartbeat IPC: 1.32905 cumulative IPC: 1.15902 (Simulation time: 1 hr 23 min 5 sec) 
Heartbeat CPU 0 instructions: 970000002 cycles: 714208935 heartbeat IPC: 1.1837 cumulative IPC: 1.15933 (Simulation time: 1 hr 23 min 57 sec) 
Heartbeat CPU 0 instructions: 980000001 cycles: 722710837 heartbeat IPC: 1.17621 cumulative IPC: 1.15954 (Simulation time: 1 hr 24 min 48 sec) 
Heartbeat CPU 0 instructions: 990000001 cycles: 731228862 heartbeat IPC: 1.17398 cumulative IPC: 1.15972 (Simulation time: 1 hr 25 min 40 sec) 
Heartbeat CPU 0 instructions: 1000000003 cycles: 743695759 heartbeat IPC: 0.802124 cumulative IPC: 1.1533 (Simulation time: 1 hr 26 min 57 sec) 
Heartbeat CPU 0 instructions: 1010000003 cycles: 762048659 heartbeat IPC: 0.544873 cumulative IPC: 1.13761 (Simulation time: 1 hr 28 min 44 sec) 
Heartbeat CPU 0 instructions: 1020000003 cycles: 766800966 heartbeat IPC: 2.10424 cumulative IPC: 1.14402 (Simulation time: 1 hr 29 min 39 sec) 
Heartbeat CPU 0 instructions: 1030000004 cycles: 771277437 heartbeat IPC: 2.2339 cumulative IPC: 1.15079 (Simulation time: 1 hr 30 min 33 sec) 
Heartbeat CPU 0 instructions: 1040000004 cycles: 775422171 heartbeat IPC: 2.4127 cumulative IPC: 1.158 (Simulation time: 1 hr 31 min 25 sec) 
Heartbeat CPU 0 instructions: 1050000001 cycles: 779838641 heartbeat IPC: 2.26425 cumulative IPC: 1.16469 (Simulation time: 1 hr 32 min 12 sec) 
Heartbeat CPU 0 instructions: 1060000003 cycles: 784087061 heartbeat IPC: 2.35382 cumulative IPC: 1.17158 (Simulation time: 1 hr 33 min 1 sec) 
Heartbeat CPU 0 instructions: 1070000003 cycles: 788229860 heartbeat IPC: 2.41383 cumulative IPC: 1.17855 (Simulation time: 1 hr 33 min 45 sec) 
Heartbeat CPU 0 instructions: 1080000004 cycles: 796909163 heartbeat IPC: 1.15217 cumulative IPC: 1.17824 (Simulation time: 1 hr 34 min 56 sec) 
Heartbeat CPU 0 instructions: 1090000003 cycles: 807763395 heartbeat IPC: 0.9213 cumulative IPC: 1.17456 (Simulation time: 1 hr 36 min 17 sec) 
Heartbeat CPU 0 instructions: 1100000001 cycles: 815179526 heartbeat IPC: 1.34841 cumulative IPC: 1.17624 (Simulation time: 1 hr 37 min 20 sec) 
Heartbeat CPU 0 instructions: 1110000003 cycles: 824477485 heartbeat IPC: 1.07551 cumulative IPC: 1.17504 (Simulation time: 1 hr 38 min 31 sec) 
Heartbeat CPU 0 instructions: 1120000000 cycles: 838456606 heartbeat IPC: 0.715352 cumulative IPC: 1.16688 (Simulation time: 1 hr 40 min 10 sec) 
Heartbeat CPU 0 instructions: 1130000001 cycles: 860366260 heartbeat IPC: 0.45642 cumulative IPC: 1.14768 (Simulation time: 1 hr 42 min 17 sec) 
Heartbeat CPU 0 instructions: 1140000001 cycles: 869958586 heartbeat IPC: 1.0425 cumulative IPC: 1.14645 (Simulation time: 1 hr 43 min 32 sec) 
Heartbeat CPU 0 instructions: 1150000002 cycles: 881509009 heartbeat IPC: 0.865769 cumulative IPC: 1.14255 (Simulation time: 1 hr 44 min 58 sec) 
Heartbeat CPU 0 instructions: 1160000002 cycles: 902291013 heartbeat IPC: 0.481186 cumulative IPC: 1.12642 (Simulation time: 1 hr 47 min 3 sec) 
Heartbeat CPU 0 instructions: 1170000000 cycles: 913211867 heartbeat IPC: 0.915679 cumulative IPC: 1.12375 (Simulation time: 1 hr 48 min 25 sec) 
Heartbeat CPU 0 instructions: 1180000001 cycles: 933269588 heartbeat IPC: 0.498561 cumulative IPC: 1.10956 (Simulation time: 1 hr 50 min 32 sec) 
Heartbeat CPU 0 instructions: 1190000001 cycles: 950484947 heartbeat IPC: 0.580877 cumulative IPC: 1.09945 (Simulation time: 1 hr 52 min 22 sec) 
Heartbeat CPU 0 instructions: 1200000000 cycles: 954620422 heartbeat IPC: 2.4181 cumulative IPC: 1.10548 (Simulation time: 1 hr 53 min 5 sec) 
Finished CPU 0 instructions: 1000000001 cycles: 904587780 cumulative IPC: 1.10548 (Simulation time: 1 hr 53 min 5 sec) 

ChampSim completed all CPUs

Region of Interest Statistics

CPU 0 cumulative IPC: 1.10548 instructions: 1000000001 cycles: 904587780
cpu0_DTLB TOTAL     ACCESS:  225738685  HIT:  224633012  MISS:    1105673
cpu0_DTLB LOAD      ACCESS:  187934168  HIT:  187145287  MISS:     788881
cpu0_DTLB RFO       ACCESS:   37804517  HIT:   37487725  MISS:     316792
cpu0_DTLB PREFETCH  ACCESS:          0  HIT:          0  MISS:          0
cpu0_DTLB WRITEBACK ACCESS:          0  HIT:          0  MISS:          0
cpu0_DTLB TRANSLATION ACCESS:          0  HIT:          0  MISS:          0
cpu0_DTLB PREFETCH  REQUESTED:          0  ISSUED:          0  USEFUL:          0  USELESS:          0
cpu0_DTLB AVERAGE MISS LATENCY: 19.1235 cycles
cpu0_ITLB TOTAL     ACCESS:   50928797  HIT:   50928075  MISS:        722
cpu0_ITLB LOAD      ACCESS:   50928797  HIT:   50928075  MISS:        722
cpu0_ITLB RFO       ACCESS:          0  HIT:          0  MISS:          0
cpu0_ITLB PREFETCH  ACCESS:          0  HIT:          0  MISS:          0
cpu0_ITLB WRITEBACK ACCESS:          0  HIT:          0  MISS:          0
cpu0_ITLB TRANSLATION ACCESS:          0  HIT:          0  MISS:          0
cpu0_ITLB PREFETCH  REQUESTED:          0  ISSUED:          0  USEFUL:          0  USELESS:          0
cpu0_ITLB AVERAGE MISS LATENCY: 259.028 cycles
cpu0_L1I TOTAL     ACCESS:   30883771  HIT:   30322537  MISS:     561234
cpu0_L1I LOAD      ACCESS:   30883771  HIT:   30322537  MISS:     561234
cpu0_L1I RFO       ACCESS:          0  HIT:          0  MISS:          0
cpu0_L1I PREFETCH  ACCESS:          0  HIT:          0  MISS:          0
cpu0_L1I WRITEBACK ACCESS:          0  HIT:          0  MISS:          0
cpu0_L1I TRANSLATION ACCESS:          0  HIT:          0  MISS:          0
cpu0_L1I PREFETCH  REQUESTED:          0  ISSUED:          0  USEFUL:          0  USELESS:          0
cpu0_L1I AVERAGE MISS LATENCY: 19.8817 cycles
cpu0_STLB TOTAL     ACCESS:    1106395  HIT:    1076766  MISS:      29629
cpu0_STLB LOAD      ACCESS:     789603  HIT:     773815  MISS:      15788
cpu0_STLB RFO       ACCESS:     316792  HIT:     302951  MISS:      13841
cpu0_STLB PREFETCH  ACCESS:          0  HIT:          0  MISS:          0
cpu0_STLB WRITEBACK ACCESS:          0  HIT:          0  MISS:          0
cpu0_STLB TRANSLATION ACCESS:          0  HIT:          0  MISS:          0
cpu0_STLB PREFETCH  REQUESTED:          0  ISSUED:          0  USEFUL:          0  USELESS:          0
cpu0_STLB AVERAGE MISS LATENCY: 302.678 cycles
cpu0_L1D TOTAL     ACCESS:  236722454  HIT:  221621246  MISS:   15101208
cpu0_L1D LOAD      ACCESS:  176353344  HIT:  165019558  MISS:   11333786
cpu0_L1D RFO       ACCESS:   60341831  HIT:   56577647  MISS:    3764184
cpu0_L1D PREFETCH  ACCESS:          0  HIT:          0  MISS:          0
cpu0_L1D WRITEBACK ACCESS:          0  HIT:          0  MISS:          0
cpu0_L1D TRANSLATION ACCESS:      27279  HIT:      24041  MISS:       3238
cpu0_L1D PREFETCH  REQUESTED:          0  ISSUED:          0  USEFUL:          0  USELESS:          0
cpu0_L1D AVERAGE MISS LATENCY: 237.913 cycles
cpu0_L2C TOTAL     ACCESS:   36179790  HIT:   26905516  MISS:    9274274
cpu0_L2C LOAD      ACCESS:   11894075  HIT:    9284343  MISS:    2609732
cpu0_L2C RFO       ACCESS:    3763777  HIT:    1934039  MISS:    1829738
cpu0_L2C PREFETCH  ACCESS:   14184581  HIT:    9355624  MISS:    4828957
cpu0_L2C WRITEBACK ACCESS:    6334119  HIT:    6329079  MISS:       5040
cpu0_L2C TRANSLATION ACCESS:       3238  HIT:       2431  MISS:        807
cpu0_L2C PREFETCH  REQUESTED:   46398833  ISSUED:   36437936  USEFUL:    6232555  USELESS:     160611
cpu0_L2C AVERAGE MISS LATENCY: 399.649 cycles
LLC TOTAL     ACCESS:   22389967  HIT:   14425752  MISS:    7964215
LLC LOAD      ACCESS:    1045792  HIT:     445818  MISS:     599974
LLC RFO       ACCESS:    1829611  HIT:     205694  MISS:    1623917
LLC PREFETCH  ACCESS:   15654075  HIT:    9924423  MISS:    5729652
LLC WRITEBACK ACCESS:    3859682  HIT:    3849404  MISS:      10278
LLC TRANSLATION ACCESS:        807  HIT:        413  MISS:        394
LLC PREFETCH  REQUESTED:          0  ISSUED:          0  USEFUL:          0  USELESS:          0
LLC AVERAGE MISS LATENCY: 1124.44 cycles
Printing the final status 

DRAM Statistics
 CHANNEL 0
 RQ ROW_BUFFER_HIT:    1220147  ROW_BUFFER_MISS:    6730111
 DBUS AVG_CONGESTED_CYCLE:    3.98014
 WQ ROW_BUFFER_HIT:     338377  ROW_BUFFER_MISS:    2907937  FULL:        230


CPU 0 Branch Prediction Accuracy: 95.7887% MPKI: 3.74292 Average ROB Occupancy at Mispredict: 169.386
Branch type MPKI
BRANCH_DIRECT_JUMP: 0.00039
BRANCH_INDIRECT: 1.7e-05
BRANCH_CONDITIONAL: 3.73927
BRANCH_DIRECT_CALL: 0.002478
BRANCH_INDIRECT_CALL: 0
BRANCH_RETURN: 0.000763

***************** Done with 621.wrf_s-575B.champsimtrace.xz using ppf-spp-dev, on Mon Apr 18 03:31:31 CDT 2022 ******************
