Started running file 602.gcc_s-734B.champsimtrace.xz at time Sun Apr 17 21:08:58 CDT 2022 with prefetcher ppf-spp-dev

*** ChampSim Multicore Out-of-Order Simulator ***

Warmup Instructions: 200000000
Simulation Instructions: 1000000000
Number of CPUs: 1
Off-chip DRAM Size: 4 GiB Channels: 1 Width: 64-bit Data Rate: 3200 MT/s

VirtualMemory physical capacity: 8588881920 num_ppages: 2096895
VirtualMemory page size: 4096 log2_page_size: 12

CPU 0 runs /home/faculty/p/pgratz/dpc3_traces/602.gcc_s-734B.champsimtrace.xz
CPU 0 Bimodal branch predictor
Basic BTB sets: 1024 ways: 8 indirect buffer size: 4096 RAS size: 64
cpu0_L2C PPF SPP DEV Prefetcher
Heartbeat CPU 0 instructions: 10000002 cycles: 2500071 heartbeat IPC: 3.99989 cumulative IPC: 3.99989 (Simulation time: 0 hr 0 min 30 sec) 
Heartbeat CPU 0 instructions: 20000003 cycles: 5000457 heartbeat IPC: 3.99938 cumulative IPC: 3.99963 (Simulation time: 0 hr 1 min 0 sec) 
Heartbeat CPU 0 instructions: 30000003 cycles: 7500457 heartbeat IPC: 4 cumulative IPC: 3.99976 (Simulation time: 0 hr 1 min 29 sec) 
Heartbeat CPU 0 instructions: 40000000 cycles: 10000461 heartbeat IPC: 3.99999 cumulative IPC: 3.99982 (Simulation time: 0 hr 1 min 59 sec) 
Heartbeat CPU 0 instructions: 50000000 cycles: 12500461 heartbeat IPC: 4 cumulative IPC: 3.99985 (Simulation time: 0 hr 2 min 28 sec) 
Heartbeat CPU 0 instructions: 60000000 cycles: 15000461 heartbeat IPC: 4 cumulative IPC: 3.99988 (Simulation time: 0 hr 2 min 58 sec) 
Heartbeat CPU 0 instructions: 70000001 cycles: 17506786 heartbeat IPC: 3.98991 cumulative IPC: 3.99845 (Simulation time: 0 hr 3 min 27 sec) 
Heartbeat CPU 0 instructions: 80000001 cycles: 20006786 heartbeat IPC: 4 cumulative IPC: 3.99864 (Simulation time: 0 hr 3 min 57 sec) 
Heartbeat CPU 0 instructions: 90000001 cycles: 22506786 heartbeat IPC: 4 cumulative IPC: 3.99879 (Simulation time: 0 hr 4 min 27 sec) 
Heartbeat CPU 0 instructions: 100000002 cycles: 25246898 heartbeat IPC: 3.64949 cumulative IPC: 3.96088 (Simulation time: 0 hr 5 min 0 sec) 
Heartbeat CPU 0 instructions: 110000002 cycles: 27746898 heartbeat IPC: 4 cumulative IPC: 3.96441 (Simulation time: 0 hr 5 min 30 sec) 
Heartbeat CPU 0 instructions: 120000002 cycles: 30246898 heartbeat IPC: 4 cumulative IPC: 3.96735 (Simulation time: 0 hr 5 min 59 sec) 
Heartbeat CPU 0 instructions: 130000001 cycles: 32803553 heartbeat IPC: 3.91136 cumulative IPC: 3.96299 (Simulation time: 0 hr 6 min 30 sec) 
Heartbeat CPU 0 instructions: 140000001 cycles: 35303553 heartbeat IPC: 4 cumulative IPC: 3.96561 (Simulation time: 0 hr 6 min 59 sec) 
Heartbeat CPU 0 instructions: 150000001 cycles: 37803574 heartbeat IPC: 3.99997 cumulative IPC: 3.96788 (Simulation time: 0 hr 7 min 29 sec) 
Heartbeat CPU 0 instructions: 160000002 cycles: 40306589 heartbeat IPC: 3.99518 cumulative IPC: 3.96957 (Simulation time: 0 hr 7 min 59 sec) 
Heartbeat CPU 0 instructions: 170000002 cycles: 42806589 heartbeat IPC: 4 cumulative IPC: 3.97135 (Simulation time: 0 hr 8 min 28 sec) 
Heartbeat CPU 0 instructions: 180000002 cycles: 45306589 heartbeat IPC: 4 cumulative IPC: 3.97293 (Simulation time: 0 hr 8 min 57 sec) 
Heartbeat CPU 0 instructions: 190000002 cycles: 47806589 heartbeat IPC: 4 cumulative IPC: 3.97435 (Simulation time: 0 hr 9 min 28 sec) 
Heartbeat CPU 0 instructions: 200000000 cycles: 50307090 heartbeat IPC: 3.9992 cumulative IPC: 3.97558 (Simulation time: 0 hr 9 min 58 sec) 

Warmup complete CPU 0 instructions: 200000004 cycles: 50307091 (Simulation time: 0 hr 9 min 58 sec) 

Heartbeat CPU 0 instructions: 210000000 cycles: 60222230 heartbeat IPC: 1.00856 cumulative IPC: 1.00856 (Simulation time: 0 hr 10 min 32 sec) 
Heartbeat CPU 0 instructions: 220000001 cycles: 70440697 heartbeat IPC: 0.97862 cumulative IPC: 0.993364 (Simulation time: 0 hr 11 min 7 sec) 
Heartbeat CPU 0 instructions: 230000002 cycles: 80358154 heartbeat IPC: 1.00832 cumulative IPC: 0.998301 (Simulation time: 0 hr 11 min 41 sec) 
Heartbeat CPU 0 instructions: 240000001 cycles: 90356369 heartbeat IPC: 1.00018 cumulative IPC: 0.998769 (Simulation time: 0 hr 12 min 15 sec) 
Heartbeat CPU 0 instructions: 250000000 cycles: 100940246 heartbeat IPC: 0.944833 cumulative IPC: 0.987495 (Simulation time: 0 hr 12 min 50 sec) 
Heartbeat CPU 0 instructions: 260000000 cycles: 110869599 heartbeat IPC: 1.00712 cumulative IPC: 0.990712 (Simulation time: 0 hr 13 min 24 sec) 
Heartbeat CPU 0 instructions: 270000000 cycles: 120962279 heartbeat IPC: 0.990817 cumulative IPC: 0.990727 (Simulation time: 0 hr 14 min 0 sec) 
Heartbeat CPU 0 instructions: 280000001 cycles: 130874962 heartbeat IPC: 1.00881 cumulative IPC: 0.992952 (Simulation time: 0 hr 14 min 34 sec) 
Heartbeat CPU 0 instructions: 290000000 cycles: 140841805 heartbeat IPC: 1.00333 cumulative IPC: 0.994094 (Simulation time: 0 hr 15 min 8 sec) 
Heartbeat CPU 0 instructions: 300000002 cycles: 150993804 heartbeat IPC: 0.985028 cumulative IPC: 0.99318 (Simulation time: 0 hr 15 min 42 sec) 
Heartbeat CPU 0 instructions: 310000003 cycles: 160911372 heartbeat IPC: 1.00831 cumulative IPC: 0.994537 (Simulation time: 0 hr 16 min 16 sec) 
Heartbeat CPU 0 instructions: 320000000 cycles: 170962503 heartbeat IPC: 0.994913 cumulative IPC: 0.994568 (Simulation time: 0 hr 16 min 51 sec) 
Heartbeat CPU 0 instructions: 330000003 cycles: 181226126 heartbeat IPC: 0.974315 cumulative IPC: 0.99298 (Simulation time: 0 hr 17 min 25 sec) 
Heartbeat CPU 0 instructions: 340000004 cycles: 191135267 heartbeat IPC: 1.00917 cumulative IPC: 0.994119 (Simulation time: 0 hr 17 min 59 sec) 
Heartbeat CPU 0 instructions: 350000002 cycles: 201189586 heartbeat IPC: 0.994597 cumulative IPC: 0.994151 (Simulation time: 0 hr 18 min 33 sec) 
Heartbeat CPU 0 instructions: 360000001 cycles: 211354117 heartbeat IPC: 0.983813 cumulative IPC: 0.993499 (Simulation time: 0 hr 19 min 8 sec) 
Heartbeat CPU 0 instructions: 370000001 cycles: 221265409 heartbeat IPC: 1.00895 cumulative IPC: 0.994394 (Simulation time: 0 hr 19 min 42 sec) 
Heartbeat CPU 0 instructions: 380000000 cycles: 231349154 heartbeat IPC: 0.991695 cumulative IPC: 0.994244 (Simulation time: 0 hr 20 min 16 sec) 
Heartbeat CPU 0 instructions: 390000000 cycles: 241462853 heartbeat IPC: 0.988758 cumulative IPC: 0.993954 (Simulation time: 0 hr 20 min 51 sec) 
Heartbeat CPU 0 instructions: 400000003 cycles: 251346654 heartbeat IPC: 1.01176 cumulative IPC: 0.994829 (Simulation time: 0 hr 21 min 25 sec) 
Heartbeat CPU 0 instructions: 410000001 cycles: 261350144 heartbeat IPC: 0.999651 cumulative IPC: 0.995058 (Simulation time: 0 hr 21 min 59 sec) 
Heartbeat CPU 0 instructions: 420000001 cycles: 272856654 heartbeat IPC: 0.869073 cumulative IPC: 0.988544 (Simulation time: 0 hr 22 min 35 sec) 
Heartbeat CPU 0 instructions: 430000002 cycles: 282769903 heartbeat IPC: 1.00875 cumulative IPC: 0.989406 (Simulation time: 0 hr 23 min 9 sec) 
Heartbeat CPU 0 instructions: 440000001 cycles: 292826289 heartbeat IPC: 0.994393 cumulative IPC: 0.989612 (Simulation time: 0 hr 23 min 43 sec) 
Heartbeat CPU 0 instructions: 450000000 cycles: 303001275 heartbeat IPC: 0.982802 cumulative IPC: 0.989338 (Simulation time: 0 hr 24 min 18 sec) 
Heartbeat CPU 0 instructions: 460000000 cycles: 312901452 heartbeat IPC: 1.01008 cumulative IPC: 0.99012 (Simulation time: 0 hr 24 min 52 sec) 
Heartbeat CPU 0 instructions: 470000001 cycles: 323078783 heartbeat IPC: 0.982576 cumulative IPC: 0.989839 (Simulation time: 0 hr 25 min 26 sec) 
Heartbeat CPU 0 instructions: 480000001 cycles: 334090171 heartbeat IPC: 0.908151 cumulative IPC: 0.986669 (Simulation time: 0 hr 26 min 2 sec) 
Heartbeat CPU 0 instructions: 490000000 cycles: 344036194 heartbeat IPC: 1.00543 cumulative IPC: 0.987304 (Simulation time: 0 hr 26 min 36 sec) 
Heartbeat CPU 0 instructions: 500000002 cycles: 354238231 heartbeat IPC: 0.980197 cumulative IPC: 0.987066 (Simulation time: 0 hr 27 min 11 sec) 
Heartbeat CPU 0 instructions: 510000001 cycles: 364127946 heartbeat IPC: 1.01115 cumulative IPC: 0.987825 (Simulation time: 0 hr 27 min 45 sec) 
Heartbeat CPU 0 instructions: 520000002 cycles: 374287343 heartbeat IPC: 0.984311 cumulative IPC: 0.987715 (Simulation time: 0 hr 28 min 20 sec) 
Heartbeat CPU 0 instructions: 530000001 cycles: 384257976 heartbeat IPC: 1.00295 cumulative IPC: 0.988169 (Simulation time: 0 hr 28 min 54 sec) 
Heartbeat CPU 0 instructions: 540000004 cycles: 394161558 heartbeat IPC: 1.00974 cumulative IPC: 0.98879 (Simulation time: 0 hr 29 min 28 sec) 
Heartbeat CPU 0 instructions: 550000000 cycles: 404169292 heartbeat IPC: 0.999227 cumulative IPC: 0.989086 (Simulation time: 0 hr 30 min 2 sec) 
Heartbeat CPU 0 instructions: 560000000 cycles: 415823548 heartbeat IPC: 0.858056 cumulative IPC: 0.984908 (Simulation time: 0 hr 30 min 39 sec) 
Heartbeat CPU 0 instructions: 570000004 cycles: 426081257 heartbeat IPC: 0.974877 cumulative IPC: 0.984634 (Simulation time: 0 hr 31 min 14 sec) 
Heartbeat CPU 0 instructions: 580000000 cycles: 436551620 heartbeat IPC: 0.955076 cumulative IPC: 0.983833 (Simulation time: 0 hr 31 min 49 sec) 
Heartbeat CPU 0 instructions: 590000000 cycles: 446456638 heartbeat IPC: 1.00959 cumulative IPC: 0.984477 (Simulation time: 0 hr 32 min 23 sec) 
Heartbeat CPU 0 instructions: 600000001 cycles: 456413848 heartbeat IPC: 1.0043 cumulative IPC: 0.984963 (Simulation time: 0 hr 32 min 57 sec) 
Heartbeat CPU 0 instructions: 610000003 cycles: 466597930 heartbeat IPC: 0.981925 cumulative IPC: 0.984888 (Simulation time: 0 hr 33 min 32 sec) 
Heartbeat CPU 0 instructions: 620000000 cycles: 476497702 heartbeat IPC: 1.01012 cumulative IPC: 0.985475 (Simulation time: 0 hr 34 min 6 sec) 
Heartbeat CPU 0 instructions: 630000004 cycles: 486439618 heartbeat IPC: 1.00584 cumulative IPC: 0.985939 (Simulation time: 0 hr 34 min 40 sec) 
Heartbeat CPU 0 instructions: 640000003 cycles: 496579497 heartbeat IPC: 0.986205 cumulative IPC: 0.985945 (Simulation time: 0 hr 35 min 15 sec) 
Heartbeat CPU 0 instructions: 650000002 cycles: 506477836 heartbeat IPC: 1.01027 cumulative IPC: 0.986473 (Simulation time: 0 hr 35 min 49 sec) 
Heartbeat CPU 0 instructions: 660000003 cycles: 516479697 heartbeat IPC: 0.999814 cumulative IPC: 0.986759 (Simulation time: 0 hr 36 min 23 sec) 
Heartbeat CPU 0 instructions: 670000003 cycles: 526636428 heartbeat IPC: 0.984569 cumulative IPC: 0.986712 (Simulation time: 0 hr 36 min 58 sec) 
Heartbeat CPU 0 instructions: 680000000 cycles: 536548993 heartbeat IPC: 1.00882 cumulative IPC: 0.987163 (Simulation time: 0 hr 37 min 32 sec) 
Heartbeat CPU 0 instructions: 690000001 cycles: 546563924 heartbeat IPC: 0.998509 cumulative IPC: 0.987392 (Simulation time: 0 hr 38 min 6 sec) 
Heartbeat CPU 0 instructions: 700000001 cycles: 556716182 heartbeat IPC: 0.985003 cumulative IPC: 0.987344 (Simulation time: 0 hr 38 min 41 sec) 
Heartbeat CPU 0 instructions: 710000001 cycles: 566630539 heartbeat IPC: 1.00864 cumulative IPC: 0.987753 (Simulation time: 0 hr 39 min 15 sec) 
Heartbeat CPU 0 instructions: 720000000 cycles: 576714282 heartbeat IPC: 0.991695 cumulative IPC: 0.987828 (Simulation time: 0 hr 39 min 49 sec) 
Heartbeat CPU 0 instructions: 730000004 cycles: 587047861 heartbeat IPC: 0.967719 cumulative IPC: 0.987441 (Simulation time: 0 hr 40 min 24 sec) 
Heartbeat CPU 0 instructions: 740000004 cycles: 597330728 heartbeat IPC: 0.972491 cumulative IPC: 0.98716 (Simulation time: 0 hr 40 min 59 sec) 
Heartbeat CPU 0 instructions: 750000001 cycles: 607867351 heartbeat IPC: 0.94907 cumulative IPC: 0.98644 (Simulation time: 0 hr 41 min 34 sec) 
Heartbeat CPU 0 instructions: 760000002 cycles: 621791381 heartbeat IPC: 0.718183 cumulative IPC: 0.979904 (Simulation time: 0 hr 42 min 11 sec) 
Heartbeat CPU 0 instructions: 770000000 cycles: 633347451 heartbeat IPC: 0.865346 cumulative IPC: 0.977634 (Simulation time: 0 hr 42 min 47 sec) 
Heartbeat CPU 0 instructions: 780000000 cycles: 643261581 heartbeat IPC: 1.00866 cumulative IPC: 0.978153 (Simulation time: 0 hr 43 min 21 sec) 
Heartbeat CPU 0 instructions: 790000004 cycles: 653428425 heartbeat IPC: 0.98359 cumulative IPC: 0.978244 (Simulation time: 0 hr 43 min 55 sec) 
Heartbeat CPU 0 instructions: 800000001 cycles: 663443079 heartbeat IPC: 0.998536 cumulative IPC: 0.978576 (Simulation time: 0 hr 44 min 30 sec) 
Heartbeat CPU 0 instructions: 810000000 cycles: 673365090 heartbeat IPC: 1.00786 cumulative IPC: 0.979042 (Simulation time: 0 hr 45 min 4 sec) 
Heartbeat CPU 0 instructions: 820000000 cycles: 683686719 heartbeat IPC: 0.968839 cumulative IPC: 0.978876 (Simulation time: 0 hr 45 min 38 sec) 
Heartbeat CPU 0 instructions: 830000002 cycles: 693927334 heartbeat IPC: 0.976504 cumulative IPC: 0.978838 (Simulation time: 0 hr 46 min 13 sec) 
Heartbeat CPU 0 instructions: 840000002 cycles: 704222454 heartbeat IPC: 0.971334 cumulative IPC: 0.97872 (Simulation time: 0 hr 46 min 47 sec) 
Heartbeat CPU 0 instructions: 850000004 cycles: 714469812 heartbeat IPC: 0.975861 cumulative IPC: 0.978676 (Simulation time: 0 hr 47 min 23 sec) 
Heartbeat CPU 0 instructions: 860000004 cycles: 724361596 heartbeat IPC: 1.01094 cumulative IPC: 0.979149 (Simulation time: 0 hr 47 min 57 sec) 
Heartbeat CPU 0 instructions: 870000000 cycles: 734371218 heartbeat IPC: 0.999038 cumulative IPC: 0.97944 (Simulation time: 0 hr 48 min 31 sec) 
Heartbeat CPU 0 instructions: 880000003 cycles: 744459906 heartbeat IPC: 0.991209 cumulative IPC: 0.979611 (Simulation time: 0 hr 49 min 6 sec) 
Heartbeat CPU 0 instructions: 890000003 cycles: 754390298 heartbeat IPC: 1.00701 cumulative IPC: 0.979998 (Simulation time: 0 hr 49 min 40 sec) 
Heartbeat CPU 0 instructions: 900000000 cycles: 764553672 heartbeat IPC: 0.983925 cumulative IPC: 0.980054 (Simulation time: 0 hr 50 min 14 sec) 
Heartbeat CPU 0 instructions: 910000000 cycles: 774588879 heartbeat IPC: 0.996492 cumulative IPC: 0.980281 (Simulation time: 0 hr 50 min 49 sec) 
Heartbeat CPU 0 instructions: 920000003 cycles: 784507164 heartbeat IPC: 1.00824 cumulative IPC: 0.980659 (Simulation time: 0 hr 51 min 23 sec) 
Heartbeat CPU 0 instructions: 930000000 cycles: 794644811 heartbeat IPC: 0.986422 cumulative IPC: 0.980738 (Simulation time: 0 hr 51 min 57 sec) 
Heartbeat CPU 0 instructions: 940000003 cycles: 804658194 heartbeat IPC: 0.998664 cumulative IPC: 0.980976 (Simulation time: 0 hr 52 min 32 sec) 
Heartbeat CPU 0 instructions: 950000001 cycles: 814586533 heartbeat IPC: 1.00722 cumulative IPC: 0.981316 (Simulation time: 0 hr 53 min 6 sec) 
Heartbeat CPU 0 instructions: 960000003 cycles: 824772325 heartbeat IPC: 0.98176 cumulative IPC: 0.981322 (Simulation time: 0 hr 53 min 40 sec) 
Heartbeat CPU 0 instructions: 970000002 cycles: 834839505 heartbeat IPC: 0.993327 cumulative IPC: 0.981476 (Simulation time: 0 hr 54 min 15 sec) 
Heartbeat CPU 0 instructions: 980000000 cycles: 844767100 heartbeat IPC: 1.00729 cumulative IPC: 0.981799 (Simulation time: 0 hr 54 min 49 sec) 
Heartbeat CPU 0 instructions: 990000000 cycles: 854918229 heartbeat IPC: 0.985112 cumulative IPC: 0.981841 (Simulation time: 0 hr 55 min 24 sec) 
Heartbeat CPU 0 instructions: 1000000001 cycles: 864848818 heartbeat IPC: 1.00699 cumulative IPC: 0.982147 (Simulation time: 0 hr 55 min 58 sec) 
Heartbeat CPU 0 instructions: 1010000002 cycles: 874766162 heartbeat IPC: 1.00833 cumulative IPC: 0.982462 (Simulation time: 0 hr 56 min 32 sec) 
Heartbeat CPU 0 instructions: 1020000000 cycles: 884918697 heartbeat IPC: 0.984975 cumulative IPC: 0.982493 (Simulation time: 0 hr 57 min 7 sec) 
Heartbeat CPU 0 instructions: 1030000004 cycles: 894846994 heartbeat IPC: 1.00722 cumulative IPC: 0.982784 (Simulation time: 0 hr 57 min 41 sec) 
Heartbeat CPU 0 instructions: 1040000004 cycles: 904795393 heartbeat IPC: 1.00519 cumulative IPC: 0.983044 (Simulation time: 0 hr 58 min 15 sec) 
Heartbeat CPU 0 instructions: 1050000000 cycles: 915012615 heartbeat IPC: 0.978739 cumulative IPC: 0.982994 (Simulation time: 0 hr 58 min 50 sec) 
Heartbeat CPU 0 instructions: 1060000001 cycles: 924933406 heartbeat IPC: 1.00798 cumulative IPC: 0.983277 (Simulation time: 0 hr 59 min 24 sec) 
Heartbeat CPU 0 instructions: 1070000004 cycles: 934883675 heartbeat IPC: 1.005 cumulative IPC: 0.983521 (Simulation time: 0 hr 59 min 58 sec) 
Heartbeat CPU 0 instructions: 1080000001 cycles: 945125584 heartbeat IPC: 0.97638 cumulative IPC: 0.98344 (Simulation time: 1 hr 0 min 33 sec) 
Heartbeat CPU 0 instructions: 1090000000 cycles: 955051128 heartbeat IPC: 1.0075 cumulative IPC: 0.983704 (Simulation time: 1 hr 1 min 7 sec) 
Heartbeat CPU 0 instructions: 1100000003 cycles: 965000236 heartbeat IPC: 1.00512 cumulative IPC: 0.983937 (Simulation time: 1 hr 1 min 41 sec) 
Heartbeat CPU 0 instructions: 1110000000 cycles: 975202555 heartbeat IPC: 0.980169 cumulative IPC: 0.983895 (Simulation time: 1 hr 2 min 16 sec) 
Heartbeat CPU 0 instructions: 1120000004 cycles: 985108745 heartbeat IPC: 1.00947 cumulative IPC: 0.984166 (Simulation time: 1 hr 2 min 50 sec) 
Heartbeat CPU 0 instructions: 1130000000 cycles: 995085790 heartbeat IPC: 1.0023 cumulative IPC: 0.984357 (Simulation time: 1 hr 3 min 24 sec) 
Heartbeat CPU 0 instructions: 1140000003 cycles: 1005227169 heartbeat IPC: 0.986059 cumulative IPC: 0.984376 (Simulation time: 1 hr 3 min 59 sec) 
Heartbeat CPU 0 instructions: 1150000004 cycles: 1015121600 heartbeat IPC: 1.01067 cumulative IPC: 0.984645 (Simulation time: 1 hr 4 min 33 sec) 
Heartbeat CPU 0 instructions: 1160000001 cycles: 1025086305 heartbeat IPC: 1.00354 cumulative IPC: 0.984838 (Simulation time: 1 hr 5 min 7 sec) 
Heartbeat CPU 0 instructions: 1170000001 cycles: 1035227833 heartbeat IPC: 0.986045 cumulative IPC: 0.984851 (Simulation time: 1 hr 5 min 42 sec) 
Heartbeat CPU 0 instructions: 1180000001 cycles: 1045128074 heartbeat IPC: 1.01008 cumulative IPC: 0.985102 (Simulation time: 1 hr 6 min 16 sec) 
Heartbeat CPU 0 instructions: 1190000001 cycles: 1055191593 heartbeat IPC: 0.993688 cumulative IPC: 0.985188 (Simulation time: 1 hr 6 min 50 sec) 
Heartbeat CPU 0 instructions: 1200000001 cycles: 1065309676 heartbeat IPC: 0.98833 cumulative IPC: 0.985219 (Simulation time: 1 hr 7 min 24 sec) 
Finished CPU 0 instructions: 1000000002 cycles: 1015002586 cumulative IPC: 0.985219 (Simulation time: 1 hr 7 min 24 sec) 

ChampSim completed all CPUs

Region of Interest Statistics

CPU 0 cumulative IPC: 0.985219 instructions: 1000000002 cycles: 1015002586
cpu0_DTLB TOTAL     ACCESS:  185420016  HIT:  184975982  MISS:     444034
cpu0_DTLB LOAD      ACCESS:  147573467  HIT:  147130541  MISS:     442926
cpu0_DTLB RFO       ACCESS:   37846549  HIT:   37845441  MISS:       1108
cpu0_DTLB PREFETCH  ACCESS:          0  HIT:          0  MISS:          0
cpu0_DTLB WRITEBACK ACCESS:          0  HIT:          0  MISS:          0
cpu0_DTLB TRANSLATION ACCESS:          0  HIT:          0  MISS:          0
cpu0_DTLB PREFETCH  REQUESTED:          0  ISSUED:          0  USEFUL:          0  USELESS:          0
cpu0_DTLB AVERAGE MISS LATENCY: 16.1342 cycles
cpu0_ITLB TOTAL     ACCESS:  112349636  HIT:  112349636  MISS:          0
cpu0_ITLB LOAD      ACCESS:  112349636  HIT:  112349636  MISS:          0
cpu0_ITLB RFO       ACCESS:          0  HIT:          0  MISS:          0
cpu0_ITLB PREFETCH  ACCESS:          0  HIT:          0  MISS:          0
cpu0_ITLB WRITEBACK ACCESS:          0  HIT:          0  MISS:          0
cpu0_ITLB TRANSLATION ACCESS:          0  HIT:          0  MISS:          0
cpu0_ITLB PREFETCH  REQUESTED:          0  ISSUED:          0  USEFUL:          0  USELESS:          0
cpu0_ITLB AVERAGE MISS LATENCY: -nan cycles
cpu0_L1I TOTAL     ACCESS:     228650  HIT:     228649  MISS:          1
cpu0_L1I LOAD      ACCESS:     228650  HIT:     228649  MISS:          1
cpu0_L1I RFO       ACCESS:          0  HIT:          0  MISS:          0
cpu0_L1I PREFETCH  ACCESS:          0  HIT:          0  MISS:          0
cpu0_L1I WRITEBACK ACCESS:          0  HIT:          0  MISS:          0
cpu0_L1I TRANSLATION ACCESS:          0  HIT:          0  MISS:          0
cpu0_L1I PREFETCH  REQUESTED:          0  ISSUED:          0  USEFUL:          0  USELESS:          0
cpu0_L1I AVERAGE MISS LATENCY: 195 cycles
cpu0_STLB TOTAL     ACCESS:     444034  HIT:     388225  MISS:      55809
cpu0_STLB LOAD      ACCESS:     442926  HIT:     387432  MISS:      55494
cpu0_STLB RFO       ACCESS:       1108  HIT:        793  MISS:        315
cpu0_STLB PREFETCH  ACCESS:          0  HIT:          0  MISS:          0
cpu0_STLB WRITEBACK ACCESS:          0  HIT:          0  MISS:          0
cpu0_STLB TRANSLATION ACCESS:          0  HIT:          0  MISS:          0
cpu0_STLB PREFETCH  REQUESTED:          0  ISSUED:          0  USEFUL:          0  USELESS:          0
cpu0_STLB AVERAGE MISS LATENCY: 40.8341 cycles
cpu0_L1D TOTAL     ACCESS:  227635974  HIT:  211120528  MISS:   16515446
cpu0_L1D LOAD      ACCESS:  127482766  HIT:  110994349  MISS:   16488417
cpu0_L1D RFO       ACCESS:  100097564  HIT:  100087599  MISS:       9965
cpu0_L1D PREFETCH  ACCESS:          0  HIT:          0  MISS:          0
cpu0_L1D WRITEBACK ACCESS:          0  HIT:          0  MISS:          0
cpu0_L1D TRANSLATION ACCESS:      55644  HIT:      38580  MISS:      17064
cpu0_L1D PREFETCH  REQUESTED:          0  ISSUED:          0  USEFUL:          0  USELESS:          0
cpu0_L1D AVERAGE MISS LATENCY: 15.5796 cycles
cpu0_L2C TOTAL     ACCESS:   60076154  HIT:   51589760  MISS:    8486394
cpu0_L2C LOAD      ACCESS:   16488418  HIT:   16010508  MISS:     477910
cpu0_L2C RFO       ACCESS:       9965  HIT:       2142  MISS:       7823
cpu0_L2C PREFETCH  ACCESS:   43396222  HIT:   35401532  MISS:    7994690
cpu0_L2C WRITEBACK ACCESS:     164485  HIT:     164442  MISS:         43
cpu0_L2C TRANSLATION ACCESS:      17064  HIT:      11136  MISS:       5928
cpu0_L2C PREFETCH  REQUESTED:   81377333  ISSUED:   81000755  USEFUL:    7808818  USELESS:     201250
cpu0_L2C AVERAGE MISS LATENCY: 44.6453 cycles
LLC TOTAL     ACCESS:   45316351  HIT:   36530309  MISS:    8786042
LLC LOAD      ACCESS:     462555  HIT:      61184  MISS:     401371
LLC RFO       ACCESS:       7806  HIT:        330  MISS:       7476
LLC PREFETCH  ACCESS:   44760439  HIT:   36405774  MISS:    8354665
LLC WRITEBACK ACCESS:      79623  HIT:      61707  MISS:      17916
LLC TRANSLATION ACCESS:       5928  HIT:       1314  MISS:       4614
LLC PREFETCH  REQUESTED:          0  ISSUED:          0  USEFUL:          0  USELESS:          0
LLC AVERAGE MISS LATENCY: 105.765 cycles
Printing the final status 

DRAM Statistics
 CHANNEL 0
 RQ ROW_BUFFER_HIT:    6438027  ROW_BUFFER_MISS:    2330099
 DBUS AVG_CONGESTED_CYCLE:    3.97294
 WQ ROW_BUFFER_HIT:      45050  ROW_BUFFER_MISS:      33624  FULL:          0


CPU 0 Branch Prediction Accuracy: 94.6562% MPKI: 12.6924 Average ROB Occupancy at Mispredict: 58.5669
Branch type MPKI
BRANCH_DIRECT_JUMP: 4e-06
BRANCH_INDIRECT: 0
BRANCH_CONDITIONAL: 12.6924
BRANCH_DIRECT_CALL: 1e-06
BRANCH_INDIRECT_CALL: 2e-06
BRANCH_RETURN: 1e-06

***************** Done with 602.gcc_s-734B.champsimtrace.xz using ppf-spp-dev, on Sun Apr 17 22:16:22 CDT 2022 ******************
