Started running file 654.roms_s-842B.champsimtrace.xz at time Mon Apr 18 03:31:32 CDT 2022 with prefetcher ppf-spp-dev

*** ChampSim Multicore Out-of-Order Simulator ***

Warmup Instructions: 200000000
Simulation Instructions: 1000000000
Number of CPUs: 1
Off-chip DRAM Size: 4 GiB Channels: 1 Width: 64-bit Data Rate: 3200 MT/s

VirtualMemory physical capacity: 8588881920 num_ppages: 2096895
VirtualMemory page size: 4096 log2_page_size: 12

CPU 0 runs /home/faculty/p/pgratz/dpc3_traces/654.roms_s-842B.champsimtrace.xz
CPU 0 Bimodal branch predictor
Basic BTB sets: 1024 ways: 8 indirect buffer size: 4096 RAS size: 64
cpu0_L2C PPF SPP DEV Prefetcher
Heartbeat CPU 0 instructions: 10000002 cycles: 2501444 heartbeat IPC: 3.99769 cumulative IPC: 3.99769 (Simulation time: 0 hr 0 min 25 sec) 
Heartbeat CPU 0 instructions: 20000003 cycles: 5003221 heartbeat IPC: 3.99716 cumulative IPC: 3.99743 (Simulation time: 0 hr 0 min 51 sec) 
Heartbeat CPU 0 instructions: 30000001 cycles: 7504027 heartbeat IPC: 3.99871 cumulative IPC: 3.99785 (Simulation time: 0 hr 1 min 17 sec) 
Heartbeat CPU 0 instructions: 40000001 cycles: 10005960 heartbeat IPC: 3.99691 cumulative IPC: 3.99762 (Simulation time: 0 hr 1 min 42 sec) 
Heartbeat CPU 0 instructions: 50000002 cycles: 12510312 heartbeat IPC: 3.99305 cumulative IPC: 3.9967 (Simulation time: 0 hr 2 min 9 sec) 
Heartbeat CPU 0 instructions: 60000000 cycles: 15011762 heartbeat IPC: 3.99768 cumulative IPC: 3.99687 (Simulation time: 0 hr 2 min 35 sec) 
Heartbeat CPU 0 instructions: 70000001 cycles: 17513049 heartbeat IPC: 3.99794 cumulative IPC: 3.99702 (Simulation time: 0 hr 3 min 0 sec) 
Heartbeat CPU 0 instructions: 80000003 cycles: 20014500 heartbeat IPC: 3.99768 cumulative IPC: 3.9971 (Simulation time: 0 hr 3 min 26 sec) 
Heartbeat CPU 0 instructions: 90000003 cycles: 22516272 heartbeat IPC: 3.99717 cumulative IPC: 3.99711 (Simulation time: 0 hr 3 min 52 sec) 
Heartbeat CPU 0 instructions: 100000002 cycles: 25016916 heartbeat IPC: 3.99897 cumulative IPC: 3.9973 (Simulation time: 0 hr 4 min 17 sec) 
Heartbeat CPU 0 instructions: 110000000 cycles: 27519172 heartbeat IPC: 3.99639 cumulative IPC: 3.99721 (Simulation time: 0 hr 4 min 43 sec) 
Heartbeat CPU 0 instructions: 120000002 cycles: 30020139 heartbeat IPC: 3.99845 cumulative IPC: 3.99732 (Simulation time: 0 hr 5 min 8 sec) 
Heartbeat CPU 0 instructions: 130000002 cycles: 32520461 heartbeat IPC: 3.99948 cumulative IPC: 3.99748 (Simulation time: 0 hr 5 min 33 sec) 
Heartbeat CPU 0 instructions: 140000003 cycles: 35022395 heartbeat IPC: 3.99691 cumulative IPC: 3.99744 (Simulation time: 0 hr 5 min 59 sec) 
Heartbeat CPU 0 instructions: 150000002 cycles: 37524328 heartbeat IPC: 3.99691 cumulative IPC: 3.99741 (Simulation time: 0 hr 6 min 25 sec) 
Heartbeat CPU 0 instructions: 160000002 cycles: 40025134 heartbeat IPC: 3.99871 cumulative IPC: 3.99749 (Simulation time: 0 hr 6 min 50 sec) 
Heartbeat CPU 0 instructions: 170000002 cycles: 42526585 heartbeat IPC: 3.99768 cumulative IPC: 3.9975 (Simulation time: 0 hr 7 min 16 sec) 
Heartbeat CPU 0 instructions: 180000002 cycles: 45029163 heartbeat IPC: 3.99588 cumulative IPC: 3.99741 (Simulation time: 0 hr 7 min 42 sec) 
Heartbeat CPU 0 instructions: 190000003 cycles: 47531101 heartbeat IPC: 3.9969 cumulative IPC: 3.99738 (Simulation time: 0 hr 8 min 8 sec) 
Heartbeat CPU 0 instructions: 200000002 cycles: 50032550 heartbeat IPC: 3.99768 cumulative IPC: 3.9974 (Simulation time: 0 hr 8 min 33 sec) 

Warmup complete CPU 0 instructions: 200000002 cycles: 50032550 (Simulation time: 0 hr 8 min 33 sec) 

Heartbeat CPU 0 instructions: 210000000 cycles: 58321191 heartbeat IPC: 1.20647 cumulative IPC: 1.20647 (Simulation time: 0 hr 8 min 59 sec) 
Heartbeat CPU 0 instructions: 220000000 cycles: 66385102 heartbeat IPC: 1.24009 cumulative IPC: 1.22305 (Simulation time: 0 hr 9 min 27 sec) 
Heartbeat CPU 0 instructions: 230000001 cycles: 74698462 heartbeat IPC: 1.20288 cumulative IPC: 1.21625 (Simulation time: 0 hr 9 min 53 sec) 
Heartbeat CPU 0 instructions: 240000000 cycles: 82785588 heartbeat IPC: 1.23653 cumulative IPC: 1.22126 (Simulation time: 0 hr 10 min 21 sec) 
Heartbeat CPU 0 instructions: 250000001 cycles: 90900772 heartbeat IPC: 1.23226 cumulative IPC: 1.22344 (Simulation time: 0 hr 10 min 48 sec) 
Heartbeat CPU 0 instructions: 260000000 cycles: 99141555 heartbeat IPC: 1.21348 cumulative IPC: 1.22177 (Simulation time: 0 hr 11 min 15 sec) 
Heartbeat CPU 0 instructions: 270000003 cycles: 107253314 heartbeat IPC: 1.23278 cumulative IPC: 1.22333 (Simulation time: 0 hr 11 min 42 sec) 
Heartbeat CPU 0 instructions: 280000000 cycles: 115434426 heartbeat IPC: 1.22233 cumulative IPC: 1.22321 (Simulation time: 0 hr 12 min 9 sec) 
Heartbeat CPU 0 instructions: 290000000 cycles: 123751156 heartbeat IPC: 1.2024 cumulative IPC: 1.22086 (Simulation time: 0 hr 12 min 36 sec) 
Heartbeat CPU 0 instructions: 300000002 cycles: 131990771 heartbeat IPC: 1.21365 cumulative IPC: 1.22013 (Simulation time: 0 hr 13 min 2 sec) 
Heartbeat CPU 0 instructions: 310000000 cycles: 140332255 heartbeat IPC: 1.19883 cumulative IPC: 1.21817 (Simulation time: 0 hr 13 min 28 sec) 
Heartbeat CPU 0 instructions: 320000004 cycles: 148673764 heartbeat IPC: 1.19882 cumulative IPC: 1.21653 (Simulation time: 0 hr 13 min 54 sec) 
Heartbeat CPU 0 instructions: 330000000 cycles: 157015576 heartbeat IPC: 1.19878 cumulative IPC: 1.21515 (Simulation time: 0 hr 14 min 20 sec) 
Heartbeat CPU 0 instructions: 340000003 cycles: 165252500 heartbeat IPC: 1.21405 cumulative IPC: 1.21507 (Simulation time: 0 hr 14 min 46 sec) 
Heartbeat CPU 0 instructions: 350000000 cycles: 173564680 heartbeat IPC: 1.20305 cumulative IPC: 1.21426 (Simulation time: 0 hr 15 min 13 sec) 
Heartbeat CPU 0 instructions: 360000001 cycles: 181855026 heartbeat IPC: 1.20622 cumulative IPC: 1.21375 (Simulation time: 0 hr 15 min 39 sec) 
Heartbeat CPU 0 instructions: 370000000 cycles: 190115665 heartbeat IPC: 1.21056 cumulative IPC: 1.21357 (Simulation time: 0 hr 16 min 5 sec) 
Heartbeat CPU 0 instructions: 380000002 cycles: 197765975 heartbeat IPC: 1.30714 cumulative IPC: 1.21841 (Simulation time: 0 hr 16 min 36 sec) 
Heartbeat CPU 0 instructions: 390000004 cycles: 205844505 heartbeat IPC: 1.23785 cumulative IPC: 1.21942 (Simulation time: 0 hr 17 min 4 sec) 
Heartbeat CPU 0 instructions: 400000003 cycles: 214105861 heartbeat IPC: 1.21045 cumulative IPC: 1.21897 (Simulation time: 0 hr 17 min 30 sec) 
Heartbeat CPU 0 instructions: 410000002 cycles: 222396614 heartbeat IPC: 1.20616 cumulative IPC: 1.21835 (Simulation time: 0 hr 17 min 57 sec) 
Heartbeat CPU 0 instructions: 420000002 cycles: 230712445 heartbeat IPC: 1.20253 cumulative IPC: 1.21762 (Simulation time: 0 hr 18 min 23 sec) 
Heartbeat CPU 0 instructions: 430000004 cycles: 238542641 heartbeat IPC: 1.27711 cumulative IPC: 1.22009 (Simulation time: 0 hr 18 min 52 sec) 
Heartbeat CPU 0 instructions: 440000000 cycles: 246560237 heartbeat IPC: 1.24726 cumulative IPC: 1.2212 (Simulation time: 0 hr 19 min 21 sec) 
Heartbeat CPU 0 instructions: 450000002 cycles: 253814900 heartbeat IPC: 1.37842 cumulative IPC: 1.2268 (Simulation time: 0 hr 19 min 54 sec) 
Heartbeat CPU 0 instructions: 460000001 cycles: 262104388 heartbeat IPC: 1.20635 cumulative IPC: 1.226 (Simulation time: 0 hr 20 min 21 sec) 
Heartbeat CPU 0 instructions: 470000003 cycles: 270371224 heartbeat IPC: 1.20965 cumulative IPC: 1.22539 (Simulation time: 0 hr 20 min 47 sec) 
Heartbeat CPU 0 instructions: 480000002 cycles: 278585206 heartbeat IPC: 1.21744 cumulative IPC: 1.2251 (Simulation time: 0 hr 21 min 14 sec) 
Heartbeat CPU 0 instructions: 490000000 cycles: 295321841 heartbeat IPC: 0.597492 cumulative IPC: 1.18228 (Simulation time: 0 hr 22 min 36 sec) 
Heartbeat CPU 0 instructions: 500000003 cycles: 301372318 heartbeat IPC: 1.65276 cumulative IPC: 1.1936 (Simulation time: 0 hr 23 min 26 sec) 
Heartbeat CPU 0 instructions: 510000000 cycles: 307422809 heartbeat IPC: 1.65276 cumulative IPC: 1.2044 (Simulation time: 0 hr 24 min 16 sec) 
Heartbeat CPU 0 instructions: 520000000 cycles: 313461187 heartbeat IPC: 1.65607 cumulative IPC: 1.21475 (Simulation time: 0 hr 25 min 6 sec) 
Heartbeat CPU 0 instructions: 530000000 cycles: 319506901 heartbeat IPC: 1.65406 cumulative IPC: 1.22461 (Simulation time: 0 hr 25 min 57 sec) 
Heartbeat CPU 0 instructions: 540000000 cycles: 325548457 heartbeat IPC: 1.6552 cumulative IPC: 1.23405 (Simulation time: 0 hr 26 min 47 sec) 
Heartbeat CPU 0 instructions: 550000002 cycles: 331588832 heartbeat IPC: 1.65553 cumulative IPC: 1.24309 (Simulation time: 0 hr 27 min 37 sec) 
Heartbeat CPU 0 instructions: 560000000 cycles: 338885554 heartbeat IPC: 1.37048 cumulative IPC: 1.24631 (Simulation time: 0 hr 28 min 31 sec) 
Heartbeat CPU 0 instructions: 570000003 cycles: 352462448 heartbeat IPC: 0.736546 cumulative IPC: 1.22342 (Simulation time: 0 hr 29 min 55 sec) 
Heartbeat CPU 0 instructions: 580000001 cycles: 358506060 heartbeat IPC: 1.65464 cumulative IPC: 1.23187 (Simulation time: 0 hr 30 min 45 sec) 
Heartbeat CPU 0 instructions: 590000003 cycles: 364550213 heartbeat IPC: 1.65449 cumulative IPC: 1.23999 (Simulation time: 0 hr 31 min 34 sec) 
Heartbeat CPU 0 instructions: 600000000 cycles: 370589144 heartbeat IPC: 1.65592 cumulative IPC: 1.24783 (Simulation time: 0 hr 32 min 24 sec) 
Heartbeat CPU 0 instructions: 610000002 cycles: 376639334 heartbeat IPC: 1.65284 cumulative IPC: 1.25533 (Simulation time: 0 hr 33 min 14 sec) 
Heartbeat CPU 0 instructions: 620000003 cycles: 382675086 heartbeat IPC: 1.65679 cumulative IPC: 1.26262 (Simulation time: 0 hr 34 min 4 sec) 
Heartbeat CPU 0 instructions: 630000000 cycles: 388722825 heartbeat IPC: 1.65351 cumulative IPC: 1.2696 (Simulation time: 0 hr 34 min 53 sec) 
Heartbeat CPU 0 instructions: 640000000 cycles: 403796377 heartbeat IPC: 0.663414 cumulative IPC: 1.24377 (Simulation time: 0 hr 36 min 22 sec) 
Heartbeat CPU 0 instructions: 650000004 cycles: 409838094 heartbeat IPC: 1.65516 cumulative IPC: 1.25068 (Simulation time: 0 hr 37 min 12 sec) 
Heartbeat CPU 0 instructions: 660000004 cycles: 415887474 heartbeat IPC: 1.65306 cumulative IPC: 1.25733 (Simulation time: 0 hr 38 min 1 sec) 
Heartbeat CPU 0 instructions: 670000001 cycles: 421924484 heartbeat IPC: 1.65645 cumulative IPC: 1.26381 (Simulation time: 0 hr 38 min 51 sec) 
Heartbeat CPU 0 instructions: 680000003 cycles: 427972009 heartbeat IPC: 1.65357 cumulative IPC: 1.27004 (Simulation time: 0 hr 39 min 41 sec) 
Heartbeat CPU 0 instructions: 690000003 cycles: 434012215 heartbeat IPC: 1.65557 cumulative IPC: 1.27611 (Simulation time: 0 hr 40 min 31 sec) 
Heartbeat CPU 0 instructions: 700000001 cycles: 440054904 heartbeat IPC: 1.65489 cumulative IPC: 1.28198 (Simulation time: 0 hr 41 min 20 sec) 
Heartbeat CPU 0 instructions: 710000000 cycles: 453550036 heartbeat IPC: 0.741008 cumulative IPC: 1.26389 (Simulation time: 0 hr 42 min 42 sec) 
Heartbeat CPU 0 instructions: 720000003 cycles: 461598704 heartbeat IPC: 1.24244 cumulative IPC: 1.26347 (Simulation time: 0 hr 43 min 42 sec) 
Heartbeat CPU 0 instructions: 730000003 cycles: 467644653 heartbeat IPC: 1.654 cumulative IPC: 1.26912 (Simulation time: 0 hr 44 min 32 sec) 
Heartbeat CPU 0 instructions: 740000002 cycles: 473686479 heartbeat IPC: 1.65513 cumulative IPC: 1.27463 (Simulation time: 0 hr 45 min 21 sec) 
Heartbeat CPU 0 instructions: 750000004 cycles: 479728104 heartbeat IPC: 1.65518 cumulative IPC: 1.27998 (Simulation time: 0 hr 46 min 11 sec) 
Heartbeat CPU 0 instructions: 760000001 cycles: 485775543 heartbeat IPC: 1.65359 cumulative IPC: 1.28516 (Simulation time: 0 hr 47 min 1 sec) 
Heartbeat CPU 0 instructions: 770000001 cycles: 491811735 heartbeat IPC: 1.65667 cumulative IPC: 1.29024 (Simulation time: 0 hr 47 min 51 sec) 
Heartbeat CPU 0 instructions: 780000001 cycles: 497861560 heartbeat IPC: 1.65294 cumulative IPC: 1.29514 (Simulation time: 0 hr 48 min 40 sec) 
Heartbeat CPU 0 instructions: 790000003 cycles: 513935011 heartbeat IPC: 0.622144 cumulative IPC: 1.27182 (Simulation time: 0 hr 50 min 13 sec) 
Heartbeat CPU 0 instructions: 800000001 cycles: 519980159 heartbeat IPC: 1.65422 cumulative IPC: 1.27674 (Simulation time: 0 hr 51 min 3 sec) 
Heartbeat CPU 0 instructions: 810000001 cycles: 526025902 heartbeat IPC: 1.65406 cumulative IPC: 1.28153 (Simulation time: 0 hr 51 min 53 sec) 
Heartbeat CPU 0 instructions: 820000000 cycles: 532063062 heartbeat IPC: 1.65641 cumulative IPC: 1.28623 (Simulation time: 0 hr 52 min 43 sec) 
Heartbeat CPU 0 instructions: 830000002 cycles: 538112494 heartbeat IPC: 1.65305 cumulative IPC: 1.29077 (Simulation time: 0 hr 53 min 33 sec) 
Heartbeat CPU 0 instructions: 840000004 cycles: 544153766 heartbeat IPC: 1.65528 cumulative IPC: 1.29523 (Simulation time: 0 hr 54 min 22 sec) 
Heartbeat CPU 0 instructions: 850000004 cycles: 550195774 heartbeat IPC: 1.65508 cumulative IPC: 1.29958 (Simulation time: 0 hr 55 min 12 sec) 
Heartbeat CPU 0 instructions: 860000000 cycles: 564615325 heartbeat IPC: 0.693503 cumulative IPC: 1.28259 (Simulation time: 0 hr 56 min 39 sec) 
Heartbeat CPU 0 instructions: 870000001 cycles: 570655080 heartbeat IPC: 1.6557 cumulative IPC: 1.28692 (Simulation time: 0 hr 57 min 29 sec) 
Heartbeat CPU 0 instructions: 880000002 cycles: 576704487 heartbeat IPC: 1.65305 cumulative IPC: 1.29113 (Simulation time: 0 hr 58 min 18 sec) 
Heartbeat CPU 0 instructions: 890000004 cycles: 582742404 heartbeat IPC: 1.6562 cumulative IPC: 1.29526 (Simulation time: 0 hr 59 min 8 sec) 
Heartbeat CPU 0 instructions: 900000003 cycles: 588786354 heartbeat IPC: 1.65455 cumulative IPC: 1.29929 (Simulation time: 0 hr 59 min 57 sec) 
Heartbeat CPU 0 instructions: 910000000 cycles: 594831580 heartbeat IPC: 1.6542 cumulative IPC: 1.30323 (Simulation time: 1 hr 0 min 47 sec) 
Heartbeat CPU 0 instructions: 920000000 cycles: 600868826 heartbeat IPC: 1.65638 cumulative IPC: 1.3071 (Simulation time: 1 hr 1 min 37 sec) 
Heartbeat CPU 0 instructions: 930000002 cycles: 606919184 heartbeat IPC: 1.6528 cumulative IPC: 1.31086 (Simulation time: 1 hr 2 min 26 sec) 
Heartbeat CPU 0 instructions: 940000000 cycles: 622444188 heartbeat IPC: 0.644122 cumulative IPC: 1.29278 (Simulation time: 1 hr 3 min 57 sec) 
Heartbeat CPU 0 instructions: 950000002 cycles: 628489177 heartbeat IPC: 1.65426 cumulative IPC: 1.29655 (Simulation time: 1 hr 4 min 46 sec) 
Heartbeat CPU 0 instructions: 960000000 cycles: 634533083 heartbeat IPC: 1.65456 cumulative IPC: 1.30026 (Simulation time: 1 hr 5 min 36 sec) 
Heartbeat CPU 0 instructions: 970000002 cycles: 640571015 heartbeat IPC: 1.6562 cumulative IPC: 1.30389 (Simulation time: 1 hr 6 min 26 sec) 
Heartbeat CPU 0 instructions: 980000001 cycles: 646621325 heartbeat IPC: 1.65281 cumulative IPC: 1.30743 (Simulation time: 1 hr 7 min 15 sec) 
Heartbeat CPU 0 instructions: 990000003 cycles: 652659781 heartbeat IPC: 1.65605 cumulative IPC: 1.31093 (Simulation time: 1 hr 8 min 5 sec) 
Heartbeat CPU 0 instructions: 1000000003 cycles: 658704084 heartbeat IPC: 1.65445 cumulative IPC: 1.31434 (Simulation time: 1 hr 8 min 54 sec) 
Heartbeat CPU 0 instructions: 1010000002 cycles: 674517637 heartbeat IPC: 0.632369 cumulative IPC: 1.29707 (Simulation time: 1 hr 10 min 28 sec) 
Heartbeat CPU 0 instructions: 1020000002 cycles: 680559871 heartbeat IPC: 1.65502 cumulative IPC: 1.3005 (Simulation time: 1 hr 11 min 17 sec) 
Heartbeat CPU 0 instructions: 1030000000 cycles: 686610101 heartbeat IPC: 1.65283 cumulative IPC: 1.30385 (Simulation time: 1 hr 12 min 7 sec) 
Heartbeat CPU 0 instructions: 1040000000 cycles: 692645738 heartbeat IPC: 1.65683 cumulative IPC: 1.30716 (Simulation time: 1 hr 12 min 57 sec) 
Heartbeat CPU 0 instructions: 1050000000 cycles: 698692150 heartbeat IPC: 1.65387 cumulative IPC: 1.31039 (Simulation time: 1 hr 13 min 47 sec) 
Heartbeat CPU 0 instructions: 1060000000 cycles: 704735609 heartbeat IPC: 1.65468 cumulative IPC: 1.31357 (Simulation time: 1 hr 14 min 36 sec) 
Heartbeat CPU 0 instructions: 1070000001 cycles: 710776243 heartbeat IPC: 1.65546 cumulative IPC: 1.3167 (Simulation time: 1 hr 15 min 26 sec) 
Heartbeat CPU 0 instructions: 1080000003 cycles: 721365476 heartbeat IPC: 0.944356 cumulative IPC: 1.31082 (Simulation time: 1 hr 16 min 31 sec) 
Heartbeat CPU 0 instructions: 1090000000 cycles: 731921931 heartbeat IPC: 0.947287 cumulative IPC: 1.3052 (Simulation time: 1 hr 17 min 45 sec) 
Heartbeat CPU 0 instructions: 1100000000 cycles: 737967785 heartbeat IPC: 1.65403 cumulative IPC: 1.30826 (Simulation time: 1 hr 18 min 34 sec) 
Heartbeat CPU 0 instructions: 1110000002 cycles: 744011594 heartbeat IPC: 1.65459 cumulative IPC: 1.31128 (Simulation time: 1 hr 19 min 24 sec) 
Heartbeat CPU 0 instructions: 1120000000 cycles: 750048996 heartbeat IPC: 1.65634 cumulative IPC: 1.31425 (Simulation time: 1 hr 20 min 14 sec) 
Heartbeat CPU 0 instructions: 1130000000 cycles: 756097872 heartbeat IPC: 1.6532 cumulative IPC: 1.31716 (Simulation time: 1 hr 21 min 3 sec) 
Heartbeat CPU 0 instructions: 1140000000 cycles: 762136111 heartbeat IPC: 1.65611 cumulative IPC: 1.32003 (Simulation time: 1 hr 21 min 53 sec) 
Heartbeat CPU 0 instructions: 1150000000 cycles: 768184047 heartbeat IPC: 1.65346 cumulative IPC: 1.32284 (Simulation time: 1 hr 22 min 43 sec) 
Heartbeat CPU 0 instructions: 1160000001 cycles: 782975700 heartbeat IPC: 0.676057 cumulative IPC: 1.30979 (Simulation time: 1 hr 24 min 10 sec) 
Heartbeat CPU 0 instructions: 1170000000 cycles: 789019231 heartbeat IPC: 1.65466 cumulative IPC: 1.31261 (Simulation time: 1 hr 25 min 0 sec) 
Heartbeat CPU 0 instructions: 1180000000 cycles: 795068423 heartbeat IPC: 1.65311 cumulative IPC: 1.31537 (Simulation time: 1 hr 25 min 50 sec) 
Heartbeat CPU 0 instructions: 1190000001 cycles: 801103363 heartbeat IPC: 1.65702 cumulative IPC: 1.31812 (Simulation time: 1 hr 26 min 40 sec) 
Heartbeat CPU 0 instructions: 1200000000 cycles: 807152132 heartbeat IPC: 1.65323 cumulative IPC: 1.3208 (Simulation time: 1 hr 27 min 30 sec) 
Finished CPU 0 instructions: 1000000000 cycles: 757119592 cumulative IPC: 1.3208 (Simulation time: 1 hr 27 min 30 sec) 

ChampSim completed all CPUs

Region of Interest Statistics

CPU 0 cumulative IPC: 1.3208 instructions: 1000000000 cycles: 757119592
cpu0_DTLB TOTAL     ACCESS:  164969432  HIT:  164914477  MISS:      54955
cpu0_DTLB LOAD      ACCESS:  113719819  HIT:  113680575  MISS:      39244
cpu0_DTLB RFO       ACCESS:   51249613  HIT:   51233902  MISS:      15711
cpu0_DTLB PREFETCH  ACCESS:          0  HIT:          0  MISS:          0
cpu0_DTLB WRITEBACK ACCESS:          0  HIT:          0  MISS:          0
cpu0_DTLB TRANSLATION ACCESS:          0  HIT:          0  MISS:          0
cpu0_DTLB PREFETCH  REQUESTED:          0  ISSUED:          0  USEFUL:          0  USELESS:          0
cpu0_DTLB AVERAGE MISS LATENCY: 78.0497 cycles
cpu0_ITLB TOTAL     ACCESS:   66200560  HIT:   66200553  MISS:          7
cpu0_ITLB LOAD      ACCESS:   66200560  HIT:   66200553  MISS:          7
cpu0_ITLB RFO       ACCESS:          0  HIT:          0  MISS:          0
cpu0_ITLB PREFETCH  ACCESS:          0  HIT:          0  MISS:          0
cpu0_ITLB WRITEBACK ACCESS:          0  HIT:          0  MISS:          0
cpu0_ITLB TRANSLATION ACCESS:          0  HIT:          0  MISS:          0
cpu0_ITLB PREFETCH  REQUESTED:          0  ISSUED:          0  USEFUL:          0  USELESS:          0
cpu0_ITLB AVERAGE MISS LATENCY: 344.143 cycles
cpu0_L1I TOTAL     ACCESS:   64687720  HIT:   64687649  MISS:         71
cpu0_L1I LOAD      ACCESS:   64687720  HIT:   64687649  MISS:         71
cpu0_L1I RFO       ACCESS:          0  HIT:          0  MISS:          0
cpu0_L1I PREFETCH  ACCESS:          0  HIT:          0  MISS:          0
cpu0_L1I WRITEBACK ACCESS:          0  HIT:          0  MISS:          0
cpu0_L1I TRANSLATION ACCESS:          0  HIT:          0  MISS:          0
cpu0_L1I PREFETCH  REQUESTED:          0  ISSUED:          0  USEFUL:          0  USELESS:          0
cpu0_L1I AVERAGE MISS LATENCY: 221.239 cycles
cpu0_STLB TOTAL     ACCESS:      54962  HIT:      37391  MISS:      17571
cpu0_STLB LOAD      ACCESS:      39251  HIT:      27187  MISS:      12064
cpu0_STLB RFO       ACCESS:      15711  HIT:      10204  MISS:       5507
cpu0_STLB PREFETCH  ACCESS:          0  HIT:          0  MISS:          0
cpu0_STLB WRITEBACK ACCESS:          0  HIT:          0  MISS:          0
cpu0_STLB TRANSLATION ACCESS:          0  HIT:          0  MISS:          0
cpu0_STLB PREFETCH  REQUESTED:          0  ISSUED:          0  USEFUL:          0  USELESS:          0
cpu0_STLB AVERAGE MISS LATENCY: 209.834 cycles
cpu0_L1D TOTAL     ACCESS:  206569297  HIT:  204066833  MISS:    2502464
cpu0_L1D LOAD      ACCESS:  117133989  HIT:  115631231  MISS:    1502758
cpu0_L1D RFO       ACCESS:   89417773  HIT:   88418106  MISS:     999667
cpu0_L1D PREFETCH  ACCESS:          0  HIT:          0  MISS:          0
cpu0_L1D WRITEBACK ACCESS:          0  HIT:          0  MISS:          0
cpu0_L1D TRANSLATION ACCESS:      17535  HIT:      17496  MISS:         39
cpu0_L1D PREFETCH  REQUESTED:          0  ISSUED:          0  USEFUL:          0  USELESS:          0
cpu0_L1D AVERAGE MISS LATENCY: 450.631 cycles
cpu0_L2C TOTAL     ACCESS:    4608070  HIT:    2046681  MISS:    2561389
cpu0_L2C LOAD      ACCESS:    1502829  HIT:    1027789  MISS:     475040
cpu0_L2C RFO       ACCESS:     999667  HIT:        418  MISS:     999249
cpu0_L2C PREFETCH  ACCESS:    1105766  HIT:      20714  MISS:    1085052
cpu0_L2C WRITEBACK ACCESS:     999769  HIT:     997760  MISS:       2009
cpu0_L2C TRANSLATION ACCESS:         39  HIT:          0  MISS:         39
cpu0_L2C PREFETCH  REQUESTED:    8240346  ISSUED:    7721619  USEFUL:    1408876  USELESS:      57082
cpu0_L2C AVERAGE MISS LATENCY: 433.989 cycles
LLC TOTAL     ACCESS:    6591616  HIT:    3966259  MISS:    2625357
LLC LOAD      ACCESS:      94089  HIT:       2056  MISS:      92033
LLC RFO       ACCESS:     999249  HIT:         86  MISS:     999163
LLC PREFETCH  ACCESS:    4498957  HIT:    2966880  MISS:    1532077
LLC WRITEBACK ACCESS:     999282  HIT:     997237  MISS:       2045
LLC TRANSLATION ACCESS:         39  HIT:          0  MISS:         39
LLC PREFETCH  REQUESTED:          0  ISSUED:          0  USEFUL:          0  USELESS:          0
LLC AVERAGE MISS LATENCY: 838.194 cycles
Printing the final status 

DRAM Statistics
 CHANNEL 0
 RQ ROW_BUFFER_HIT:     338567  ROW_BUFFER_MISS:    2284745
 DBUS AVG_CONGESTED_CYCLE:    3.98078
 WQ ROW_BUFFER_HIT:      92920  ROW_BUFFER_MISS:     905657  FULL:          0


CPU 0 Branch Prediction Accuracy: 90.3742% MPKI: 11.5802 Average ROB Occupancy at Mispredict: 21.4131
Branch type MPKI
BRANCH_DIRECT_JUMP: 8e-06
BRANCH_INDIRECT: 0
BRANCH_CONDITIONAL: 11.5801
BRANCH_DIRECT_CALL: 8e-06
BRANCH_INDIRECT_CALL: 0
BRANCH_RETURN: 9e-06

***************** Done with 654.roms_s-842B.champsimtrace.xz using ppf-spp-dev, on Mon Apr 18 04:59:02 CDT 2022 ******************
