Started running file 619.lbm_s-4268B.champsimtrace.xz at time Sun Apr 17 23:59:42 CDT 2022 with prefetcher ppf-spp-dev

*** ChampSim Multicore Out-of-Order Simulator ***

Warmup Instructions: 200000000
Simulation Instructions: 1000000000
Number of CPUs: 1
Off-chip DRAM Size: 4 GiB Channels: 1 Width: 64-bit Data Rate: 3200 MT/s

VirtualMemory physical capacity: 8588881920 num_ppages: 2096895
VirtualMemory page size: 4096 log2_page_size: 12

CPU 0 runs /home/faculty/p/pgratz/dpc3_traces/619.lbm_s-4268B.champsimtrace.xz
CPU 0 Bimodal branch predictor
Basic BTB sets: 1024 ways: 8 indirect buffer size: 4096 RAS size: 64
cpu0_L2C PPF SPP DEV Prefetcher
Heartbeat CPU 0 instructions: 10000000 cycles: 2591882 heartbeat IPC: 3.8582 cumulative IPC: 3.8582 (Simulation time: 0 hr 0 min 37 sec) 
Heartbeat CPU 0 instructions: 20000002 cycles: 5179406 heartbeat IPC: 3.8647 cumulative IPC: 3.86145 (Simulation time: 0 hr 1 min 14 sec) 
Heartbeat CPU 0 instructions: 30000003 cycles: 7769599 heartbeat IPC: 3.86072 cumulative IPC: 3.8612 (Simulation time: 0 hr 1 min 50 sec) 
Heartbeat CPU 0 instructions: 40000002 cycles: 10357834 heartbeat IPC: 3.86364 cumulative IPC: 3.86181 (Simulation time: 0 hr 2 min 27 sec) 
Heartbeat CPU 0 instructions: 50000003 cycles: 12946071 heartbeat IPC: 3.86363 cumulative IPC: 3.86218 (Simulation time: 0 hr 3 min 3 sec) 
Heartbeat CPU 0 instructions: 60000000 cycles: 15538684 heartbeat IPC: 3.85711 cumulative IPC: 3.86133 (Simulation time: 0 hr 3 min 40 sec) 
Heartbeat CPU 0 instructions: 70000003 cycles: 18128898 heartbeat IPC: 3.86069 cumulative IPC: 3.86124 (Simulation time: 0 hr 4 min 17 sec) 
Heartbeat CPU 0 instructions: 80000003 cycles: 20718904 heartbeat IPC: 3.86099 cumulative IPC: 3.86121 (Simulation time: 0 hr 4 min 54 sec) 
Heartbeat CPU 0 instructions: 90000004 cycles: 23312837 heartbeat IPC: 3.85515 cumulative IPC: 3.86053 (Simulation time: 0 hr 5 min 30 sec) 
Heartbeat CPU 0 instructions: 100000003 cycles: 25905944 heartbeat IPC: 3.85638 cumulative IPC: 3.86012 (Simulation time: 0 hr 6 min 7 sec) 
Heartbeat CPU 0 instructions: 110000002 cycles: 28503297 heartbeat IPC: 3.85007 cumulative IPC: 3.8592 (Simulation time: 0 hr 6 min 44 sec) 
Heartbeat CPU 0 instructions: 120000001 cycles: 31102832 heartbeat IPC: 3.84684 cumulative IPC: 3.85817 (Simulation time: 0 hr 7 min 21 sec) 
Heartbeat CPU 0 instructions: 130000001 cycles: 33694292 heartbeat IPC: 3.85883 cumulative IPC: 3.85822 (Simulation time: 0 hr 7 min 57 sec) 
Heartbeat CPU 0 instructions: 140000002 cycles: 36291734 heartbeat IPC: 3.84994 cumulative IPC: 3.85763 (Simulation time: 0 hr 8 min 34 sec) 
Heartbeat CPU 0 instructions: 150000001 cycles: 38890892 heartbeat IPC: 3.8474 cumulative IPC: 3.85694 (Simulation time: 0 hr 9 min 11 sec) 
Heartbeat CPU 0 instructions: 160000003 cycles: 41492632 heartbeat IPC: 3.84358 cumulative IPC: 3.85611 (Simulation time: 0 hr 9 min 48 sec) 
Heartbeat CPU 0 instructions: 170000002 cycles: 44090584 heartbeat IPC: 3.84919 cumulative IPC: 3.8557 (Simulation time: 0 hr 10 min 25 sec) 
Heartbeat CPU 0 instructions: 180000002 cycles: 46692373 heartbeat IPC: 3.84351 cumulative IPC: 3.85502 (Simulation time: 0 hr 11 min 2 sec) 
Heartbeat CPU 0 instructions: 190000002 cycles: 49294657 heartbeat IPC: 3.84278 cumulative IPC: 3.85437 (Simulation time: 0 hr 11 min 39 sec) 
Heartbeat CPU 0 instructions: 200000003 cycles: 51891631 heartbeat IPC: 3.85064 cumulative IPC: 3.85419 (Simulation time: 0 hr 12 min 16 sec) 

Warmup complete CPU 0 instructions: 200000003 cycles: 51891631 (Simulation time: 0 hr 12 min 16 sec) 

Heartbeat CPU 0 instructions: 210000001 cycles: 99412775 heartbeat IPC: 0.210433 cumulative IPC: 0.210433 (Simulation time: 0 hr 16 min 38 sec) 
Heartbeat CPU 0 instructions: 220000002 cycles: 146894836 heartbeat IPC: 0.210606 cumulative IPC: 0.210519 (Simulation time: 0 hr 21 min 0 sec) 
Heartbeat CPU 0 instructions: 230000002 cycles: 193804841 heartbeat IPC: 0.213174 cumulative IPC: 0.211397 (Simulation time: 0 hr 25 min 19 sec) 
Heartbeat CPU 0 instructions: 240000002 cycles: 240798313 heartbeat IPC: 0.212796 cumulative IPC: 0.211745 (Simulation time: 0 hr 29 min 37 sec) 
Heartbeat CPU 0 instructions: 250000003 cycles: 286592820 heartbeat IPC: 0.218367 cumulative IPC: 0.213037 (Simulation time: 0 hr 33 min 48 sec) 
Heartbeat CPU 0 instructions: 260000000 cycles: 332373705 heartbeat IPC: 0.218432 cumulative IPC: 0.213917 (Simulation time: 0 hr 37 min 59 sec) 
Heartbeat CPU 0 instructions: 270000003 cycles: 378222173 heartbeat IPC: 0.21811 cumulative IPC: 0.214506 (Simulation time: 0 hr 42 min 10 sec) 
Heartbeat CPU 0 instructions: 280000001 cycles: 423410312 heartbeat IPC: 0.221297 cumulative IPC: 0.215332 (Simulation time: 0 hr 46 min 16 sec) 
Heartbeat CPU 0 instructions: 290000004 cycles: 469151384 heartbeat IPC: 0.218622 cumulative IPC: 0.215693 (Simulation time: 0 hr 50 min 27 sec) 
Heartbeat CPU 0 instructions: 300000001 cycles: 515639599 heartbeat IPC: 0.215108 cumulative IPC: 0.215634 (Simulation time: 0 hr 54 min 43 sec) 
Heartbeat CPU 0 instructions: 310000000 cycles: 561873024 heartbeat IPC: 0.216294 cumulative IPC: 0.215694 (Simulation time: 0 hr 58 min 57 sec) 
Heartbeat CPU 0 instructions: 320000001 cycles: 607979985 heartbeat IPC: 0.216887 cumulative IPC: 0.215793 (Simulation time: 1 hr 3 min 10 sec) 
Heartbeat CPU 0 instructions: 330000002 cycles: 653735236 heartbeat IPC: 0.218554 cumulative IPC: 0.216003 (Simulation time: 1 hr 7 min 20 sec) 
Heartbeat CPU 0 instructions: 340000003 cycles: 698744887 heartbeat IPC: 0.222175 cumulative IPC: 0.216432 (Simulation time: 1 hr 11 min 27 sec) 
Heartbeat CPU 0 instructions: 350000002 cycles: 743166391 heartbeat IPC: 0.225116 cumulative IPC: 0.21699 (Simulation time: 1 hr 15 min 29 sec) 
Heartbeat CPU 0 instructions: 360000001 cycles: 788786082 heartbeat IPC: 0.219204 cumulative IPC: 0.217127 (Simulation time: 1 hr 19 min 39 sec) 
Heartbeat CPU 0 instructions: 370000003 cycles: 833269939 heartbeat IPC: 0.224801 cumulative IPC: 0.217564 (Simulation time: 1 hr 23 min 42 sec) 
Heartbeat CPU 0 instructions: 380000000 cycles: 878497927 heartbeat IPC: 0.221102 cumulative IPC: 0.217758 (Simulation time: 1 hr 27 min 49 sec) 
Heartbeat CPU 0 instructions: 390000000 cycles: 923553484 heartbeat IPC: 0.221948 cumulative IPC: 0.217974 (Simulation time: 1 hr 31 min 56 sec) 
Heartbeat CPU 0 instructions: 400000000 cycles: 967784121 heartbeat IPC: 0.226088 cumulative IPC: 0.218366 (Simulation time: 1 hr 35 min 59 sec) 
Heartbeat CPU 0 instructions: 410000003 cycles: 1012967582 heartbeat IPC: 0.22132 cumulative IPC: 0.218505 (Simulation time: 1 hr 40 min 7 sec) 
Heartbeat CPU 0 instructions: 420000000 cycles: 1058134063 heartbeat IPC: 0.221403 cumulative IPC: 0.218635 (Simulation time: 1 hr 44 min 14 sec) 
Heartbeat CPU 0 instructions: 430000000 cycles: 1104725037 heartbeat IPC: 0.214634 cumulative IPC: 0.218458 (Simulation time: 1 hr 48 min 30 sec) 
Heartbeat CPU 0 instructions: 440000002 cycles: 1150879386 heartbeat IPC: 0.216664 cumulative IPC: 0.218383 (Simulation time: 1 hr 52 min 44 sec) 
Heartbeat CPU 0 instructions: 450000001 cycles: 1195657678 heartbeat IPC: 0.223322 cumulative IPC: 0.218576 (Simulation time: 1 hr 56 min 49 sec) 
Heartbeat CPU 0 instructions: 460000002 cycles: 1238629678 heartbeat IPC: 0.23271 cumulative IPC: 0.219088 (Simulation time: 2 hr 0 min 45 sec) 
Heartbeat CPU 0 instructions: 470000003 cycles: 1281678755 heartbeat IPC: 0.232293 cumulative IPC: 0.21955 (Simulation time: 2 hr 4 min 40 sec) 
Heartbeat CPU 0 instructions: 480000004 cycles: 1322884564 heartbeat IPC: 0.242684 cumulative IPC: 0.2203 (Simulation time: 2 hr 8 min 24 sec) 
Heartbeat CPU 0 instructions: 490000002 cycles: 1362011607 heartbeat IPC: 0.255578 cumulative IPC: 0.221354 (Simulation time: 2 hr 11 min 56 sec) 
Heartbeat CPU 0 instructions: 500000000 cycles: 1399087812 heartbeat IPC: 0.269715 cumulative IPC: 0.222685 (Simulation time: 2 hr 15 min 15 sec) 
Heartbeat CPU 0 instructions: 510000003 cycles: 1434919349 heartbeat IPC: 0.279084 cumulative IPC: 0.224146 (Simulation time: 2 hr 18 min 27 sec) 
Heartbeat CPU 0 instructions: 520000003 cycles: 1468425510 heartbeat IPC: 0.298453 cumulative IPC: 0.225904 (Simulation time: 2 hr 21 min 24 sec) 
Heartbeat CPU 0 instructions: 530000003 cycles: 1500159308 heartbeat IPC: 0.315121 cumulative IPC: 0.227858 (Simulation time: 2 hr 24 min 11 sec) 
Heartbeat CPU 0 instructions: 540000001 cycles: 1530876042 heartbeat IPC: 0.325555 cumulative IPC: 0.229887 (Simulation time: 2 hr 26 min 51 sec) 
Heartbeat CPU 0 instructions: 550000004 cycles: 1559550747 heartbeat IPC: 0.34874 cumulative IPC: 0.232148 (Simulation time: 2 hr 29 min 19 sec) 
Heartbeat CPU 0 instructions: 560000001 cycles: 1588199971 heartbeat IPC: 0.349049 cumulative IPC: 0.234328 (Simulation time: 2 hr 31 min 47 sec) 
Heartbeat CPU 0 instructions: 570000000 cycles: 1614735147 heartbeat IPC: 0.376858 cumulative IPC: 0.236748 (Simulation time: 2 hr 34 min 2 sec) 
Heartbeat CPU 0 instructions: 580000001 cycles: 1641245638 heartbeat IPC: 0.377209 cumulative IPC: 0.239091 (Simulation time: 2 hr 36 min 17 sec) 
Heartbeat CPU 0 instructions: 590000002 cycles: 1666475065 heartbeat IPC: 0.396363 cumulative IPC: 0.241548 (Simulation time: 2 hr 38 min 25 sec) 
Heartbeat CPU 0 instructions: 600000004 cycles: 1690944614 heartbeat IPC: 0.408671 cumulative IPC: 0.244043 (Simulation time: 2 hr 40 min 27 sec) 
Heartbeat CPU 0 instructions: 610000003 cycles: 1714468959 heartbeat IPC: 0.425092 cumulative IPC: 0.246605 (Simulation time: 2 hr 42 min 24 sec) 
Heartbeat CPU 0 instructions: 620000003 cycles: 1738132244 heartbeat IPC: 0.422596 cumulative IPC: 0.249075 (Simulation time: 2 hr 44 min 22 sec) 
Heartbeat CPU 0 instructions: 630000004 cycles: 1761453657 heartbeat IPC: 0.428791 cumulative IPC: 0.251526 (Simulation time: 2 hr 46 min 18 sec) 
Heartbeat CPU 0 instructions: 640000004 cycles: 1783969372 heartbeat IPC: 0.444134 cumulative IPC: 0.25403 (Simulation time: 2 hr 48 min 10 sec) 
Heartbeat CPU 0 instructions: 650000002 cycles: 1806505083 heartbeat IPC: 0.44374 cumulative IPC: 0.256467 (Simulation time: 2 hr 50 min 1 sec) 
Heartbeat CPU 0 instructions: 660000002 cycles: 1828283721 heartbeat IPC: 0.459166 cumulative IPC: 0.258952 (Simulation time: 2 hr 51 min 47 sec) 
Heartbeat CPU 0 instructions: 670000001 cycles: 1850202049 heartbeat IPC: 0.456239 cumulative IPC: 0.261356 (Simulation time: 2 hr 53 min 34 sec) 
Heartbeat CPU 0 instructions: 680000000 cycles: 1871827368 heartbeat IPC: 0.462421 cumulative IPC: 0.263746 (Simulation time: 2 hr 55 min 20 sec) 
Heartbeat CPU 0 instructions: 690000003 cycles: 1893541476 heartbeat IPC: 0.46053 cumulative IPC: 0.266066 (Simulation time: 2 hr 57 min 6 sec) 
Heartbeat CPU 0 instructions: 700000000 cycles: 1915280689 heartbeat IPC: 0.459998 cumulative IPC: 0.268328 (Simulation time: 2 hr 58 min 53 sec) 
Heartbeat CPU 0 instructions: 710000004 cycles: 1936771777 heartbeat IPC: 0.465309 cumulative IPC: 0.270574 (Simulation time: 3 hr 0 min 39 sec) 
Heartbeat CPU 0 instructions: 720000000 cycles: 1957858267 heartbeat IPC: 0.474237 cumulative IPC: 0.272827 (Simulation time: 3 hr 2 min 30 sec) 
Heartbeat CPU 0 instructions: 730000000 cycles: 1979219097 heartbeat IPC: 0.468147 cumulative IPC: 0.274992 (Simulation time: 3 hr 4 min 21 sec) 
Heartbeat CPU 0 instructions: 740000003 cycles: 2000235775 heartbeat IPC: 0.475813 cumulative IPC: 0.277158 (Simulation time: 3 hr 6 min 3 sec) 
Heartbeat CPU 0 instructions: 750000004 cycles: 2021365248 heartbeat IPC: 0.473273 cumulative IPC: 0.279262 (Simulation time: 3 hr 7 min 46 sec) 
Heartbeat CPU 0 instructions: 760000001 cycles: 2042384354 heartbeat IPC: 0.475757 cumulative IPC: 0.281337 (Simulation time: 3 hr 9 min 28 sec) 
Heartbeat CPU 0 instructions: 770000000 cycles: 2063429670 heartbeat IPC: 0.475165 cumulative IPC: 0.283365 (Simulation time: 3 hr 11 min 11 sec) 
Heartbeat CPU 0 instructions: 780000003 cycles: 2084130464 heartbeat IPC: 0.483073 cumulative IPC: 0.2854 (Simulation time: 3 hr 12 min 51 sec) 
Heartbeat CPU 0 instructions: 790000001 cycles: 2105061187 heartbeat IPC: 0.477766 cumulative IPC: 0.287361 (Simulation time: 3 hr 14 min 33 sec) 
Heartbeat CPU 0 instructions: 800000003 cycles: 2125746840 heartbeat IPC: 0.483427 cumulative IPC: 0.289316 (Simulation time: 3 hr 16 min 13 sec) 
Heartbeat CPU 0 instructions: 810000002 cycles: 2146871860 heartbeat IPC: 0.473372 cumulative IPC: 0.291172 (Simulation time: 3 hr 18 min 0 sec) 
Heartbeat CPU 0 instructions: 820000003 cycles: 2167940346 heartbeat IPC: 0.474643 cumulative IPC: 0.292999 (Simulation time: 3 hr 19 min 47 sec) 
Heartbeat CPU 0 instructions: 830000002 cycles: 2188591224 heartbeat IPC: 0.484241 cumulative IPC: 0.294847 (Simulation time: 3 hr 21 min 27 sec) 
Heartbeat CPU 0 instructions: 840000001 cycles: 2209591015 heartbeat IPC: 0.476195 cumulative IPC: 0.296612 (Simulation time: 3 hr 23 min 9 sec) 
Heartbeat CPU 0 instructions: 850000000 cycles: 2230270356 heartbeat IPC: 0.483574 cumulative IPC: 0.298387 (Simulation time: 3 hr 24 min 50 sec) 
Heartbeat CPU 0 instructions: 860000004 cycles: 2251268684 heartbeat IPC: 0.476229 cumulative IPC: 0.300085 (Simulation time: 3 hr 26 min 32 sec) 
Heartbeat CPU 0 instructions: 870000001 cycles: 2271953625 heartbeat IPC: 0.483443 cumulative IPC: 0.301793 (Simulation time: 3 hr 28 min 12 sec) 
Heartbeat CPU 0 instructions: 880000004 cycles: 2292940025 heartbeat IPC: 0.476499 cumulative IPC: 0.303429 (Simulation time: 3 hr 29 min 54 sec) 
Heartbeat CPU 0 instructions: 890000001 cycles: 2313593488 heartbeat IPC: 0.48418 cumulative IPC: 0.30508 (Simulation time: 3 hr 31 min 34 sec) 
Heartbeat CPU 0 instructions: 900000002 cycles: 2334693612 heartbeat IPC: 0.473931 cumulative IPC: 0.306641 (Simulation time: 3 hr 33 min 17 sec) 
Heartbeat CPU 0 instructions: 910000004 cycles: 2355368465 heartbeat IPC: 0.483679 cumulative IPC: 0.30823 (Simulation time: 3 hr 34 min 57 sec) 
Heartbeat CPU 0 instructions: 920000003 cycles: 2376428119 heartbeat IPC: 0.474842 cumulative IPC: 0.309739 (Simulation time: 3 hr 36 min 39 sec) 
Heartbeat CPU 0 instructions: 930000000 cycles: 2397126506 heartbeat IPC: 0.483129 cumulative IPC: 0.311269 (Simulation time: 3 hr 38 min 20 sec) 
Heartbeat CPU 0 instructions: 940000002 cycles: 2419091730 heartbeat IPC: 0.455265 cumulative IPC: 0.312606 (Simulation time: 3 hr 40 min 3 sec) 
Heartbeat CPU 0 instructions: 950000000 cycles: 2481966980 heartbeat IPC: 0.159045 cumulative IPC: 0.308632 (Simulation time: 3 hr 46 min 37 sec) 
Heartbeat CPU 0 instructions: 960000001 cycles: 2531530362 heartbeat IPC: 0.201762 cumulative IPC: 0.306496 (Simulation time: 3 hr 51 min 52 sec) 
Heartbeat CPU 0 instructions: 970000002 cycles: 2553525015 heartbeat IPC: 0.454656 cumulative IPC: 0.307799 (Simulation time: 3 hr 53 min 37 sec) 
Heartbeat CPU 0 instructions: 980000004 cycles: 2574186849 heartbeat IPC: 0.483984 cumulative IPC: 0.309242 (Simulation time: 3 hr 55 min 17 sec) 
Heartbeat CPU 0 instructions: 990000000 cycles: 2595261049 heartbeat IPC: 0.474514 cumulative IPC: 0.310612 (Simulation time: 3 hr 57 min 0 sec) 
Heartbeat CPU 0 instructions: 1000000001 cycles: 2615852901 heartbeat IPC: 0.485629 cumulative IPC: 0.312017 (Simulation time: 3 hr 58 min 40 sec) 
Heartbeat CPU 0 instructions: 1010000001 cycles: 2636885317 heartbeat IPC: 0.475457 cumulative IPC: 0.313347 (Simulation time: 4 hr 0 min 23 sec) 
Heartbeat CPU 0 instructions: 1020000002 cycles: 2657569616 heartbeat IPC: 0.483459 cumulative IPC: 0.314697 (Simulation time: 4 hr 2 min 3 sec) 
Heartbeat CPU 0 instructions: 1030000004 cycles: 2678665867 heartbeat IPC: 0.474018 cumulative IPC: 0.315977 (Simulation time: 4 hr 3 min 46 sec) 
Heartbeat CPU 0 instructions: 1040000003 cycles: 2699369984 heartbeat IPC: 0.482996 cumulative IPC: 0.317283 (Simulation time: 4 hr 5 min 26 sec) 
Heartbeat CPU 0 instructions: 1050000000 cycles: 2720386862 heartbeat IPC: 0.475808 cumulative IPC: 0.318532 (Simulation time: 4 hr 7 min 9 sec) 
Heartbeat CPU 0 instructions: 1060000000 cycles: 2741127632 heartbeat IPC: 0.482142 cumulative IPC: 0.319793 (Simulation time: 4 hr 8 min 49 sec) 
Heartbeat CPU 0 instructions: 1070000004 cycles: 2762181584 heartbeat IPC: 0.47497 cumulative IPC: 0.320999 (Simulation time: 4 hr 10 min 31 sec) 
Heartbeat CPU 0 instructions: 1080000000 cycles: 2782845004 heartbeat IPC: 0.483947 cumulative IPC: 0.322232 (Simulation time: 4 hr 12 min 11 sec) 
Heartbeat CPU 0 instructions: 1090000000 cycles: 2803795717 heartbeat IPC: 0.477311 cumulative IPC: 0.323412 (Simulation time: 4 hr 13 min 54 sec) 
Heartbeat CPU 0 instructions: 1100000001 cycles: 2824888537 heartbeat IPC: 0.474095 cumulative IPC: 0.324559 (Simulation time: 4 hr 15 min 37 sec) 
Heartbeat CPU 0 instructions: 1110000003 cycles: 2845616458 heartbeat IPC: 0.482441 cumulative IPC: 0.32573 (Simulation time: 4 hr 17 min 17 sec) 
Heartbeat CPU 0 instructions: 1120000001 cycles: 2867215396 heartbeat IPC: 0.462986 cumulative IPC: 0.326783 (Simulation time: 4 hr 19 min 2 sec) 
Heartbeat CPU 0 instructions: 1130000003 cycles: 2890168468 heartbeat IPC: 0.435672 cumulative IPC: 0.327664 (Simulation time: 4 hr 20 min 54 sec) 
Heartbeat CPU 0 instructions: 1140000004 cycles: 2916483099 heartbeat IPC: 0.380017 cumulative IPC: 0.328145 (Simulation time: 4 hr 23 min 5 sec) 
Heartbeat CPU 0 instructions: 1150000001 cycles: 2945826349 heartbeat IPC: 0.340794 cumulative IPC: 0.328273 (Simulation time: 4 hr 25 min 42 sec) 
Heartbeat CPU 0 instructions: 1160000003 cycles: 2980005797 heartbeat IPC: 0.292574 cumulative IPC: 0.327856 (Simulation time: 4 hr 28 min 40 sec) 
Heartbeat CPU 0 instructions: 1170000001 cycles: 3022521227 heartbeat IPC: 0.235209 cumulative IPC: 0.32653 (Simulation time: 4 hr 32 min 28 sec) 
Heartbeat CPU 0 instructions: 1180000003 cycles: 3075959855 heartbeat IPC: 0.187131 cumulative IPC: 0.324067 (Simulation time: 4 hr 37 min 25 sec) 
Heartbeat CPU 0 instructions: 1190000003 cycles: 3132695220 heartbeat IPC: 0.176257 cumulative IPC: 0.321345 (Simulation time: 4 hr 42 min 44 sec) 
Heartbeat CPU 0 instructions: 1200000001 cycles: 3195717112 heartbeat IPC: 0.158675 cumulative IPC: 0.318084 (Simulation time: 4 hr 48 min 44 sec) 
Finished CPU 0 instructions: 1000000001 cycles: 3143825482 cumulative IPC: 0.318084 (Simulation time: 4 hr 48 min 44 sec) 

ChampSim completed all CPUs

Region of Interest Statistics

CPU 0 cumulative IPC: 0.318084 instructions: 1000000001 cycles: 3143825482
cpu0_DTLB TOTAL     ACCESS:  157147939  HIT:  156213156  MISS:     934783
cpu0_DTLB LOAD      ACCESS:   76524188  HIT:   76397185  MISS:     127003
cpu0_DTLB RFO       ACCESS:   80623751  HIT:   79815971  MISS:     807780
cpu0_DTLB PREFETCH  ACCESS:          0  HIT:          0  MISS:          0
cpu0_DTLB WRITEBACK ACCESS:          0  HIT:          0  MISS:          0
cpu0_DTLB TRANSLATION ACCESS:          0  HIT:          0  MISS:          0
cpu0_DTLB PREFETCH  REQUESTED:          0  ISSUED:          0  USEFUL:          0  USELESS:          0
cpu0_DTLB AVERAGE MISS LATENCY: 270.538 cycles
cpu0_ITLB TOTAL     ACCESS:   10582821  HIT:   10582820  MISS:          1
cpu0_ITLB LOAD      ACCESS:   10582821  HIT:   10582820  MISS:          1
cpu0_ITLB RFO       ACCESS:          0  HIT:          0  MISS:          0
cpu0_ITLB PREFETCH  ACCESS:          0  HIT:          0  MISS:          0
cpu0_ITLB WRITEBACK ACCESS:          0  HIT:          0  MISS:          0
cpu0_ITLB TRANSLATION ACCESS:          0  HIT:          0  MISS:          0
cpu0_ITLB PREFETCH  REQUESTED:          0  ISSUED:          0  USEFUL:          0  USELESS:          0
cpu0_ITLB AVERAGE MISS LATENCY: 1820 cycles
cpu0_L1I TOTAL     ACCESS:   20231495  HIT:   20231492  MISS:          3
cpu0_L1I LOAD      ACCESS:   20231495  HIT:   20231492  MISS:          3
cpu0_L1I RFO       ACCESS:          0  HIT:          0  MISS:          0
cpu0_L1I PREFETCH  ACCESS:          0  HIT:          0  MISS:          0
cpu0_L1I WRITEBACK ACCESS:          0  HIT:          0  MISS:          0
cpu0_L1I TRANSLATION ACCESS:          0  HIT:          0  MISS:          0
cpu0_L1I PREFETCH  REQUESTED:          0  ISSUED:          0  USEFUL:          0  USELESS:          0
cpu0_L1I AVERAGE MISS LATENCY: 1031.33 cycles
cpu0_STLB TOTAL     ACCESS:     934784  HIT:     677799  MISS:     256985
cpu0_STLB LOAD      ACCESS:     127004  HIT:         80  MISS:     126924
cpu0_STLB RFO       ACCESS:     807780  HIT:     677719  MISS:     130061
cpu0_STLB PREFETCH  ACCESS:          0  HIT:          0  MISS:          0
cpu0_STLB WRITEBACK ACCESS:          0  HIT:          0  MISS:          0
cpu0_STLB TRANSLATION ACCESS:          0  HIT:          0  MISS:          0
cpu0_STLB PREFETCH  REQUESTED:          0  ISSUED:          0  USEFUL:          0  USELESS:          0
cpu0_STLB AVERAGE MISS LATENCY: 943.75 cycles
cpu0_L1D TOTAL     ACCESS:  210419145  HIT:  156806002  MISS:   53613143
cpu0_L1D LOAD      ACCESS:   54399061  HIT:   46275289  MISS:    8123772
cpu0_L1D RFO       ACCESS:  155763757  HIT:  110274455  MISS:   45489302
cpu0_L1D PREFETCH  ACCESS:          0  HIT:          0  MISS:          0
cpu0_L1D WRITEBACK ACCESS:          0  HIT:          0  MISS:          0
cpu0_L1D TRANSLATION ACCESS:     256327  HIT:     256258  MISS:         69
cpu0_L1D PREFETCH  REQUESTED:          0  ISSUED:          0  USEFUL:          0  USELESS:          0
cpu0_L1D AVERAGE MISS LATENCY: 901.394 cycles
cpu0_L2C TOTAL     ACCESS:  106075423  HIT:   72817405  MISS:   33258018
cpu0_L2C LOAD      ACCESS:    8123775  HIT:    6770835  MISS:    1352940
cpu0_L2C RFO       ACCESS:   45489298  HIT:   20356327  MISS:   25132971
cpu0_L2C PREFETCH  ACCESS:    6972974  HIT:     202034  MISS:    6770940
cpu0_L2C WRITEBACK ACCESS:   45489307  HIT:   45488209  MISS:       1098
cpu0_L2C TRANSLATION ACCESS:         69  HIT:          0  MISS:         69
cpu0_L2C PREFETCH  REQUESTED:   51564718  ISSUED:   33287638  USEFUL:    7790656  USELESS:        273
cpu0_L2C AVERAGE MISS LATENCY: 1472.97 cycles
LLC TOTAL     ACCESS:   67960893  HIT:   35465508  MISS:   32495385
LLC LOAD      ACCESS:     332953  HIT:      38163  MISS:     294790
LLC RFO       ACCESS:   25131218  HIT:     761236  MISS:   24369982
LLC PREFETCH  ACCESS:   17362593  HIT:    9532936  MISS:    7829657
LLC WRITEBACK ACCESS:   25134060  HIT:   25133173  MISS:        887
LLC TRANSLATION ACCESS:         69  HIT:          0  MISS:         69
LLC PREFETCH  REQUESTED:          0  ISSUED:          0  USEFUL:          0  USELESS:          0
LLC AVERAGE MISS LATENCY: 1897.44 cycles
Printing the final status 

DRAM Statistics
 CHANNEL 0
 RQ ROW_BUFFER_HIT:     910675  ROW_BUFFER_MISS:   31583823
 DBUS AVG_CONGESTED_CYCLE:    4.00443
 WQ ROW_BUFFER_HIT:     480612  ROW_BUFFER_MISS:   23890340  FULL:          0


CPU 0 Branch Prediction Accuracy: 97.8067% MPKI: 0.30673 Average ROB Occupancy at Mispredict: 258.071
Branch type MPKI
BRANCH_DIRECT_JUMP: 3e-06
BRANCH_INDIRECT: 0
BRANCH_CONDITIONAL: 0.306723
BRANCH_DIRECT_CALL: 2e-06
BRANCH_INDIRECT_CALL: 0
BRANCH_RETURN: 2e-06

***************** Done with 619.lbm_s-4268B.champsimtrace.xz using ppf-spp-dev, on Mon Apr 18 04:48:26 CDT 2022 ******************
