Started running file 627.cam4_s-573B.champsimtrace.xz at time Sun Apr 17 21:08:58 CDT 2022 with prefetcher ppf-spp-dev

*** ChampSim Multicore Out-of-Order Simulator ***

Warmup Instructions: 200000000
Simulation Instructions: 1000000000
Number of CPUs: 1
Off-chip DRAM Size: 4 GiB Channels: 1 Width: 64-bit Data Rate: 3200 MT/s

VirtualMemory physical capacity: 8588881920 num_ppages: 2096895
VirtualMemory page size: 4096 log2_page_size: 12

CPU 0 runs /home/faculty/p/pgratz/dpc3_traces/627.cam4_s-573B.champsimtrace.xz
CPU 0 Bimodal branch predictor
Basic BTB sets: 1024 ways: 8 indirect buffer size: 4096 RAS size: 64
cpu0_L2C PPF SPP DEV Prefetcher
Heartbeat CPU 0 instructions: 10000003 cycles: 2621699 heartbeat IPC: 3.81432 cumulative IPC: 3.81432 (Simulation time: 0 hr 0 min 29 sec) 
Heartbeat CPU 0 instructions: 20000001 cycles: 5121705 heartbeat IPC: 3.99999 cumulative IPC: 3.90495 (Simulation time: 0 hr 0 min 56 sec) 
Heartbeat CPU 0 instructions: 30000000 cycles: 7621705 heartbeat IPC: 4 cumulative IPC: 3.93613 (Simulation time: 0 hr 1 min 24 sec) 
Heartbeat CPU 0 instructions: 40000000 cycles: 10121762 heartbeat IPC: 3.99991 cumulative IPC: 3.95188 (Simulation time: 0 hr 1 min 51 sec) 
Heartbeat CPU 0 instructions: 50000001 cycles: 12621789 heartbeat IPC: 3.99996 cumulative IPC: 3.9614 (Simulation time: 0 hr 2 min 19 sec) 
Heartbeat CPU 0 instructions: 60000001 cycles: 15121789 heartbeat IPC: 4 cumulative IPC: 3.96778 (Simulation time: 0 hr 2 min 47 sec) 
Heartbeat CPU 0 instructions: 70000001 cycles: 17621789 heartbeat IPC: 4 cumulative IPC: 3.97235 (Simulation time: 0 hr 3 min 15 sec) 
Heartbeat CPU 0 instructions: 80000002 cycles: 20232173 heartbeat IPC: 3.83085 cumulative IPC: 3.9541 (Simulation time: 0 hr 3 min 45 sec) 
Heartbeat CPU 0 instructions: 90000000 cycles: 22863389 heartbeat IPC: 3.80052 cumulative IPC: 3.93642 (Simulation time: 0 hr 4 min 15 sec) 
Heartbeat CPU 0 instructions: 100000001 cycles: 25508647 heartbeat IPC: 3.78035 cumulative IPC: 3.92024 (Simulation time: 0 hr 4 min 43 sec) 
Heartbeat CPU 0 instructions: 110000000 cycles: 28731361 heartbeat IPC: 3.10297 cumulative IPC: 3.82857 (Simulation time: 0 hr 5 min 22 sec) 
Heartbeat CPU 0 instructions: 120000000 cycles: 31234028 heartbeat IPC: 3.99574 cumulative IPC: 3.84196 (Simulation time: 0 hr 5 min 50 sec) 
Heartbeat CPU 0 instructions: 130000001 cycles: 33734031 heartbeat IPC: 4 cumulative IPC: 3.85368 (Simulation time: 0 hr 6 min 17 sec) 
Heartbeat CPU 0 instructions: 140000003 cycles: 36234071 heartbeat IPC: 3.99994 cumulative IPC: 3.86377 (Simulation time: 0 hr 6 min 45 sec) 
Heartbeat CPU 0 instructions: 150000001 cycles: 38734112 heartbeat IPC: 3.99993 cumulative IPC: 3.87256 (Simulation time: 0 hr 7 min 13 sec) 
Heartbeat CPU 0 instructions: 160000002 cycles: 41234115 heartbeat IPC: 4 cumulative IPC: 3.88028 (Simulation time: 0 hr 7 min 41 sec) 
Heartbeat CPU 0 instructions: 170000000 cycles: 43734117 heartbeat IPC: 4 cumulative IPC: 3.88713 (Simulation time: 0 hr 8 min 9 sec) 
Heartbeat CPU 0 instructions: 180000002 cycles: 46340330 heartbeat IPC: 3.83699 cumulative IPC: 3.88431 (Simulation time: 0 hr 8 min 38 sec) 
Heartbeat CPU 0 instructions: 190000000 cycles: 48941805 heartbeat IPC: 3.84397 cumulative IPC: 3.88216 (Simulation time: 0 hr 9 min 8 sec) 
Heartbeat CPU 0 instructions: 200000000 cycles: 51559980 heartbeat IPC: 3.81945 cumulative IPC: 3.87898 (Simulation time: 0 hr 9 min 35 sec) 

Warmup complete CPU 0 instructions: 200000004 cycles: 51559981 (Simulation time: 0 hr 9 min 35 sec) 

Heartbeat CPU 0 instructions: 210000004 cycles: 84368278 heartbeat IPC: 0.304801 cumulative IPC: 0.304801 (Simulation time: 0 hr 14 min 39 sec) 
Heartbeat CPU 0 instructions: 220000003 cycles: 91234554 heartbeat IPC: 1.45639 cumulative IPC: 0.504101 (Simulation time: 0 hr 15 min 15 sec) 
Heartbeat CPU 0 instructions: 230000002 cycles: 96587401 heartbeat IPC: 1.86816 cumulative IPC: 0.666261 (Simulation time: 0 hr 15 min 51 sec) 
Heartbeat CPU 0 instructions: 240000001 cycles: 101786135 heartbeat IPC: 1.92355 cumulative IPC: 0.796398 (Simulation time: 0 hr 16 min 25 sec) 
Heartbeat CPU 0 instructions: 250000001 cycles: 107524106 heartbeat IPC: 1.74278 cumulative IPC: 0.893429 (Simulation time: 0 hr 16 min 57 sec) 
Heartbeat CPU 0 instructions: 260000001 cycles: 114011980 heartbeat IPC: 1.54134 cumulative IPC: 0.960738 (Simulation time: 0 hr 17 min 26 sec) 
Heartbeat CPU 0 instructions: 270000000 cycles: 120448325 heartbeat IPC: 1.55368 cumulative IPC: 1.01614 (Simulation time: 0 hr 17 min 55 sec) 
Heartbeat CPU 0 instructions: 280000002 cycles: 126816844 heartbeat IPC: 1.57022 cumulative IPC: 1.06303 (Simulation time: 0 hr 18 min 28 sec) 
Heartbeat CPU 0 instructions: 290000002 cycles: 135369106 heartbeat IPC: 1.16928 cumulative IPC: 1.07387 (Simulation time: 0 hr 19 min 1 sec) 
Heartbeat CPU 0 instructions: 300000002 cycles: 145438967 heartbeat IPC: 0.993062 cumulative IPC: 1.0652 (Simulation time: 0 hr 19 min 35 sec) 
Heartbeat CPU 0 instructions: 310000001 cycles: 178439132 heartbeat IPC: 0.303029 cumulative IPC: 0.866967 (Simulation time: 0 hr 24 min 47 sec) 
Heartbeat CPU 0 instructions: 320000001 cycles: 186593656 heartbeat IPC: 1.22631 cumulative IPC: 0.888667 (Simulation time: 0 hr 25 min 22 sec) 
Heartbeat CPU 0 instructions: 330000003 cycles: 192023768 heartbeat IPC: 1.84158 cumulative IPC: 0.925505 (Simulation time: 0 hr 25 min 59 sec) 
Heartbeat CPU 0 instructions: 340000000 cycles: 197206474 heartbeat IPC: 1.92949 cumulative IPC: 0.961231 (Simulation time: 0 hr 26 min 33 sec) 
Heartbeat CPU 0 instructions: 350000000 cycles: 202519792 heartbeat IPC: 1.88206 cumulative IPC: 0.993642 (Simulation time: 0 hr 27 min 6 sec) 
Heartbeat CPU 0 instructions: 360000001 cycles: 208558079 heartbeat IPC: 1.6561 cumulative IPC: 1.01912 (Simulation time: 0 hr 27 min 36 sec) 
Heartbeat CPU 0 instructions: 370000001 cycles: 215083960 heartbeat IPC: 1.53236 cumulative IPC: 1.0396 (Simulation time: 0 hr 28 min 5 sec) 
Heartbeat CPU 0 instructions: 380000003 cycles: 221392075 heartbeat IPC: 1.58526 cumulative IPC: 1.05987 (Simulation time: 0 hr 28 min 36 sec) 
Heartbeat CPU 0 instructions: 390000001 cycles: 229140887 heartbeat IPC: 1.29052 cumulative IPC: 1.06993 (Simulation time: 0 hr 29 min 10 sec) 
Heartbeat CPU 0 instructions: 400000000 cycles: 238033339 heartbeat IPC: 1.12455 cumulative IPC: 1.07254 (Simulation time: 0 hr 29 min 41 sec) 
Heartbeat CPU 0 instructions: 410000001 cycles: 251062918 heartbeat IPC: 0.767485 cumulative IPC: 1.05262 (Simulation time: 0 hr 31 min 8 sec) 
Heartbeat CPU 0 instructions: 420000000 cycles: 281091339 heartbeat IPC: 0.333018 cumulative IPC: 0.958475 (Simulation time: 0 hr 35 min 28 sec) 
Heartbeat CPU 0 instructions: 430000001 cycles: 286948433 heartbeat IPC: 1.70733 cumulative IPC: 0.977108 (Simulation time: 0 hr 36 min 5 sec) 
Heartbeat CPU 0 instructions: 440000001 cycles: 292236720 heartbeat IPC: 1.89097 cumulative IPC: 0.997188 (Simulation time: 0 hr 36 min 40 sec) 
Heartbeat CPU 0 instructions: 450000003 cycles: 297512208 heartbeat IPC: 1.89556 cumulative IPC: 1.01646 (Simulation time: 0 hr 37 min 15 sec) 
Heartbeat CPU 0 instructions: 460000000 cycles: 303501616 heartbeat IPC: 1.66961 cumulative IPC: 1.03199 (Simulation time: 0 hr 37 min 46 sec) 
Heartbeat CPU 0 instructions: 470000000 cycles: 309984868 heartbeat IPC: 1.54244 cumulative IPC: 1.04479 (Simulation time: 0 hr 38 min 15 sec) 
Heartbeat CPU 0 instructions: 480000000 cycles: 316381936 heartbeat IPC: 1.56322 cumulative IPC: 1.05731 (Simulation time: 0 hr 38 min 46 sec) 
Heartbeat CPU 0 instructions: 490000000 cycles: 324110359 heartbeat IPC: 1.29393 cumulative IPC: 1.06402 (Simulation time: 0 hr 39 min 19 sec) 
Heartbeat CPU 0 instructions: 500000000 cycles: 332848526 heartbeat IPC: 1.1444 cumulative IPC: 1.06652 (Simulation time: 0 hr 39 min 51 sec) 
Heartbeat CPU 0 instructions: 510000000 cycles: 342706146 heartbeat IPC: 1.01444 cumulative IPC: 1.06476 (Simulation time: 0 hr 40 min 38 sec) 
Heartbeat CPU 0 instructions: 520000004 cycles: 375862561 heartbeat IPC: 0.301601 cumulative IPC: 0.986733 (Simulation time: 0 hr 45 min 37 sec) 
Heartbeat CPU 0 instructions: 530000000 cycles: 381740681 heartbeat IPC: 1.70122 cumulative IPC: 0.999453 (Simulation time: 0 hr 46 min 14 sec) 
Heartbeat CPU 0 instructions: 540000002 cycles: 387079804 heartbeat IPC: 1.87297 cumulative IPC: 1.01335 (Simulation time: 0 hr 46 min 50 sec) 
Heartbeat CPU 0 instructions: 550000002 cycles: 392291511 heartbeat IPC: 1.91876 cumulative IPC: 1.0272 (Simulation time: 0 hr 47 min 23 sec) 
Heartbeat CPU 0 instructions: 560000000 cycles: 398108271 heartbeat IPC: 1.71917 cumulative IPC: 1.03882 (Simulation time: 0 hr 47 min 54 sec) 
Heartbeat CPU 0 instructions: 570000000 cycles: 404329380 heartbeat IPC: 1.60743 cumulative IPC: 1.04884 (Simulation time: 0 hr 48 min 23 sec) 
Heartbeat CPU 0 instructions: 580000000 cycles: 410684594 heartbeat IPC: 1.57351 cumulative IPC: 1.05813 (Simulation time: 0 hr 48 min 53 sec) 
Heartbeat CPU 0 instructions: 590000000 cycles: 418360477 heartbeat IPC: 1.30278 cumulative IPC: 1.06325 (Simulation time: 0 hr 49 min 26 sec) 
Heartbeat CPU 0 instructions: 600000001 cycles: 427271999 heartbeat IPC: 1.12214 cumulative IPC: 1.06465 (Simulation time: 0 hr 49 min 59 sec) 
Heartbeat CPU 0 instructions: 610000004 cycles: 436934656 heartbeat IPC: 1.03491 cumulative IPC: 1.0639 (Simulation time: 0 hr 50 min 44 sec) 
Heartbeat CPU 0 instructions: 620000002 cycles: 469940977 heartbeat IPC: 0.302972 cumulative IPC: 1.00387 (Simulation time: 0 hr 55 min 44 sec) 
Heartbeat CPU 0 instructions: 630000003 cycles: 476092235 heartbeat IPC: 1.62568 cumulative IPC: 1.01288 (Simulation time: 0 hr 56 min 21 sec) 
Heartbeat CPU 0 instructions: 640000001 cycles: 481425658 heartbeat IPC: 1.87497 cumulative IPC: 1.02358 (Simulation time: 0 hr 56 min 56 sec) 
Heartbeat CPU 0 instructions: 650000000 cycles: 486918267 heartbeat IPC: 1.82063 cumulative IPC: 1.03363 (Simulation time: 0 hr 57 min 29 sec) 
Heartbeat CPU 0 instructions: 660000000 cycles: 493349171 heartbeat IPC: 1.55499 cumulative IPC: 1.04122 (Simulation time: 0 hr 57 min 57 sec) 
Heartbeat CPU 0 instructions: 670000000 cycles: 499901748 heartbeat IPC: 1.52612 cumulative IPC: 1.04831 (Simulation time: 0 hr 58 min 26 sec) 
Heartbeat CPU 0 instructions: 680000003 cycles: 506958686 heartbeat IPC: 1.41705 cumulative IPC: 1.05402 (Simulation time: 0 hr 59 min 0 sec) 
Heartbeat CPU 0 instructions: 690000002 cycles: 515576391 heartbeat IPC: 1.1604 cumulative IPC: 1.056 (Simulation time: 0 hr 59 min 32 sec) 
Heartbeat CPU 0 instructions: 700000001 cycles: 525911448 heartbeat IPC: 0.96758 cumulative IPC: 1.05407 (Simulation time: 1 hr 0 min 14 sec) 
Heartbeat CPU 0 instructions: 710000001 cycles: 558582271 heartbeat IPC: 0.306084 cumulative IPC: 1.00587 (Simulation time: 1 hr 5 min 17 sec) 
Heartbeat CPU 0 instructions: 720000004 cycles: 565242183 heartbeat IPC: 1.50152 cumulative IPC: 1.0123 (Simulation time: 1 hr 5 min 53 sec) 
Heartbeat CPU 0 instructions: 730000001 cycles: 570756684 heartbeat IPC: 1.8134 cumulative IPC: 1.02081 (Simulation time: 1 hr 6 min 30 sec) 
Heartbeat CPU 0 instructions: 740000001 cycles: 576355473 heartbeat IPC: 1.7861 cumulative IPC: 1.02897 (Simulation time: 1 hr 7 min 1 sec) 
Heartbeat CPU 0 instructions: 750000004 cycles: 582536460 heartbeat IPC: 1.61787 cumulative IPC: 1.03583 (Simulation time: 1 hr 7 min 30 sec) 
Heartbeat CPU 0 instructions: 760000000 cycles: 588994822 heartbeat IPC: 1.54838 cumulative IPC: 1.04199 (Simulation time: 1 hr 7 min 59 sec) 
Heartbeat CPU 0 instructions: 770000001 cycles: 596104485 heartbeat IPC: 1.40654 cumulative IPC: 1.04675 (Simulation time: 1 hr 8 min 32 sec) 
Heartbeat CPU 0 instructions: 780000003 cycles: 604558771 heartbeat IPC: 1.18283 cumulative IPC: 1.04883 (Simulation time: 1 hr 9 min 5 sec) 
Heartbeat CPU 0 instructions: 790000000 cycles: 614284215 heartbeat IPC: 1.02823 cumulative IPC: 1.04847 (Simulation time: 1 hr 9 min 41 sec) 
Heartbeat CPU 0 instructions: 800000000 cycles: 647619138 heartbeat IPC: 0.299986 cumulative IPC: 1.00661 (Simulation time: 1 hr 14 min 51 sec) 
Heartbeat CPU 0 instructions: 810000000 cycles: 654580840 heartbeat IPC: 1.43643 cumulative IPC: 1.01157 (Simulation time: 1 hr 15 min 26 sec) 
Heartbeat CPU 0 instructions: 820000004 cycles: 660020296 heartbeat IPC: 1.83842 cumulative IPC: 1.01897 (Simulation time: 1 hr 16 min 3 sec) 
Heartbeat CPU 0 instructions: 830000002 cycles: 665816529 heartbeat IPC: 1.72526 cumulative IPC: 1.02563 (Simulation time: 1 hr 16 min 35 sec) 
Heartbeat CPU 0 instructions: 840000003 cycles: 671777711 heartbeat IPC: 1.67752 cumulative IPC: 1.0319 (Simulation time: 1 hr 17 min 5 sec) 
Heartbeat CPU 0 instructions: 850000004 cycles: 678216213 heartbeat IPC: 1.55316 cumulative IPC: 1.03725 (Simulation time: 1 hr 17 min 33 sec) 
Heartbeat CPU 0 instructions: 860000003 cycles: 684683777 heartbeat IPC: 1.54618 cumulative IPC: 1.04245 (Simulation time: 1 hr 18 min 6 sec) 
Heartbeat CPU 0 instructions: 870000001 cycles: 693516027 heartbeat IPC: 1.13221 cumulative IPC: 1.04369 (Simulation time: 1 hr 18 min 39 sec) 
Heartbeat CPU 0 instructions: 880000003 cycles: 703463959 heartbeat IPC: 1.00523 cumulative IPC: 1.0431 (Simulation time: 1 hr 19 min 15 sec) 
Heartbeat CPU 0 instructions: 890000000 cycles: 736647847 heartbeat IPC: 0.301351 cumulative IPC: 1.00717 (Simulation time: 1 hr 24 min 25 sec) 
Heartbeat CPU 0 instructions: 900000001 cycles: 743987812 heartbeat IPC: 1.3624 cumulative IPC: 1.01094 (Simulation time: 1 hr 24 min 59 sec) 
Heartbeat CPU 0 instructions: 910000000 cycles: 749307037 heartbeat IPC: 1.87997 cumulative IPC: 1.01756 (Simulation time: 1 hr 25 min 35 sec) 
Heartbeat CPU 0 instructions: 920000002 cycles: 754569947 heartbeat IPC: 1.90009 cumulative IPC: 1.02417 (Simulation time: 1 hr 26 min 10 sec) 
Heartbeat CPU 0 instructions: 930000000 cycles: 760695240 heartbeat IPC: 1.63257 cumulative IPC: 1.02942 (Simulation time: 1 hr 26 min 40 sec) 
Heartbeat CPU 0 instructions: 940000000 cycles: 767275208 heartbeat IPC: 1.51976 cumulative IPC: 1.03393 (Simulation time: 1 hr 27 min 9 sec) 
Heartbeat CPU 0 instructions: 950000001 cycles: 773724642 heartbeat IPC: 1.55052 cumulative IPC: 1.03854 (Simulation time: 1 hr 27 min 40 sec) 
Heartbeat CPU 0 instructions: 960000000 cycles: 781339952 heartbeat IPC: 1.31314 cumulative IPC: 1.04141 (Simulation time: 1 hr 28 min 13 sec) 
Heartbeat CPU 0 instructions: 970000000 cycles: 789882733 heartbeat IPC: 1.17058 cumulative IPC: 1.0429 (Simulation time: 1 hr 28 min 46 sec) 
Heartbeat CPU 0 instructions: 980000004 cycles: 799813124 heartbeat IPC: 1.00701 cumulative IPC: 1.04243 (Simulation time: 1 hr 29 min 28 sec) 
Heartbeat CPU 0 instructions: 990000002 cycles: 832807981 heartbeat IPC: 0.303077 cumulative IPC: 1.0112 (Simulation time: 1 hr 34 min 31 sec) 
Heartbeat CPU 0 instructions: 1000000000 cycles: 839112787 heartbeat IPC: 1.58609 cumulative IPC: 1.0158 (Simulation time: 1 hr 35 min 7 sec) 
Heartbeat CPU 0 instructions: 1010000000 cycles: 844494309 heartbeat IPC: 1.85821 cumulative IPC: 1.02152 (Simulation time: 1 hr 35 min 43 sec) 
Heartbeat CPU 0 instructions: 1020000002 cycles: 849669541 heartbeat IPC: 1.93228 cumulative IPC: 1.02743 (Simulation time: 1 hr 36 min 15 sec) 
Heartbeat CPU 0 instructions: 1030000001 cycles: 856021586 heartbeat IPC: 1.5743 cumulative IPC: 1.03175 (Simulation time: 1 hr 36 min 44 sec) 
Heartbeat CPU 0 instructions: 1040000002 cycles: 861963163 heartbeat IPC: 1.68306 cumulative IPC: 1.03652 (Simulation time: 1 hr 37 min 15 sec) 
Heartbeat CPU 0 instructions: 1050000003 cycles: 868097256 heartbeat IPC: 1.63023 cumulative IPC: 1.04098 (Simulation time: 1 hr 37 min 45 sec) 
Heartbeat CPU 0 instructions: 1060000000 cycles: 876036874 heartbeat IPC: 1.25951 cumulative IPC: 1.04309 (Simulation time: 1 hr 38 min 19 sec) 
Heartbeat CPU 0 instructions: 1070000000 cycles: 885787646 heartbeat IPC: 1.02556 cumulative IPC: 1.04288 (Simulation time: 1 hr 38 min 50 sec) 
Heartbeat CPU 0 instructions: 1080000004 cycles: 912242785 heartbeat IPC: 0.377999 cumulative IPC: 1.02244 (Simulation time: 1 hr 43 min 7 sec) 
Heartbeat CPU 0 instructions: 1090000002 cycles: 928133731 heartbeat IPC: 0.629289 cumulative IPC: 1.01532 (Simulation time: 1 hr 44 min 38 sec) 
Heartbeat CPU 0 instructions: 1100000001 cycles: 933544337 heartbeat IPC: 1.84822 cumulative IPC: 1.02043 (Simulation time: 1 hr 45 min 14 sec) 
Heartbeat CPU 0 instructions: 1110000002 cycles: 938780481 heartbeat IPC: 1.9098 cumulative IPC: 1.02568 (Simulation time: 1 hr 45 min 48 sec) 
Heartbeat CPU 0 instructions: 1120000002 cycles: 944019390 heartbeat IPC: 1.90879 cumulative IPC: 1.03086 (Simulation time: 1 hr 46 min 21 sec) 
Heartbeat CPU 0 instructions: 1130000000 cycles: 950649984 heartbeat IPC: 1.50816 cumulative IPC: 1.03438 (Simulation time: 1 hr 46 min 50 sec) 
Heartbeat CPU 0 instructions: 1140000003 cycles: 957272258 heartbeat IPC: 1.51006 cumulative IPC: 1.03786 (Simulation time: 1 hr 47 min 19 sec) 
Heartbeat CPU 0 instructions: 1150000000 cycles: 963344699 heartbeat IPC: 1.64678 cumulative IPC: 1.04191 (Simulation time: 1 hr 47 min 51 sec) 
Heartbeat CPU 0 instructions: 1160000001 cycles: 971597108 heartbeat IPC: 1.21177 cumulative IPC: 1.04344 (Simulation time: 1 hr 48 min 24 sec) 
Heartbeat CPU 0 instructions: 1170000000 cycles: 981481008 heartbeat IPC: 1.01175 cumulative IPC: 1.0431 (Simulation time: 1 hr 48 min 57 sec) 
Heartbeat CPU 0 instructions: 1180000002 cycles: 1009410930 heartbeat IPC: 0.358039 cumulative IPC: 1.02312 (Simulation time: 1 hr 53 min 22 sec) 
Heartbeat CPU 0 instructions: 1190000004 cycles: 1023479063 heartbeat IPC: 0.710827 cumulative IPC: 1.0186 (Simulation time: 1 hr 54 min 44 sec) 
Heartbeat CPU 0 instructions: 1200000003 cycles: 1028923287 heartbeat IPC: 1.83681 cumulative IPC: 1.02316 (Simulation time: 1 hr 55 min 20 sec) 
Finished CPU 0 instructions: 1000000004 cycles: 977363307 cumulative IPC: 1.02316 (Simulation time: 1 hr 55 min 20 sec) 

ChampSim completed all CPUs

Region of Interest Statistics

CPU 0 cumulative IPC: 1.02316 instructions: 1000000004 cycles: 977363307
cpu0_DTLB TOTAL     ACCESS:  159018686  HIT:  158373984  MISS:     644702
cpu0_DTLB LOAD      ACCESS:  105571709  HIT:  105090616  MISS:     481093
cpu0_DTLB RFO       ACCESS:   53446977  HIT:   53283368  MISS:     163609
cpu0_DTLB PREFETCH  ACCESS:          0  HIT:          0  MISS:          0
cpu0_DTLB WRITEBACK ACCESS:          0  HIT:          0  MISS:          0
cpu0_DTLB TRANSLATION ACCESS:          0  HIT:          0  MISS:          0
cpu0_DTLB PREFETCH  REQUESTED:          0  ISSUED:          0  USEFUL:          0  USELESS:          0
cpu0_DTLB AVERAGE MISS LATENCY: 13.5501 cycles
cpu0_ITLB TOTAL     ACCESS:   73835991  HIT:   73823791  MISS:      12200
cpu0_ITLB LOAD      ACCESS:   73835991  HIT:   73823791  MISS:      12200
cpu0_ITLB RFO       ACCESS:          0  HIT:          0  MISS:          0
cpu0_ITLB PREFETCH  ACCESS:          0  HIT:          0  MISS:          0
cpu0_ITLB WRITEBACK ACCESS:          0  HIT:          0  MISS:          0
cpu0_ITLB TRANSLATION ACCESS:          0  HIT:          0  MISS:          0
cpu0_ITLB PREFETCH  REQUESTED:          0  ISSUED:          0  USEFUL:          0  USELESS:          0
cpu0_ITLB AVERAGE MISS LATENCY: 12.3975 cycles
cpu0_L1I TOTAL     ACCESS:   60443160  HIT:   60040047  MISS:     403113
cpu0_L1I LOAD      ACCESS:   60443160  HIT:   60040047  MISS:     403113
cpu0_L1I RFO       ACCESS:          0  HIT:          0  MISS:          0
cpu0_L1I PREFETCH  ACCESS:          0  HIT:          0  MISS:          0
cpu0_L1I WRITEBACK ACCESS:          0  HIT:          0  MISS:          0
cpu0_L1I TRANSLATION ACCESS:          0  HIT:          0  MISS:          0
cpu0_L1I PREFETCH  REQUESTED:          0  ISSUED:          0  USEFUL:          0  USELESS:          0
cpu0_L1I AVERAGE MISS LATENCY: 41.1044 cycles
cpu0_STLB TOTAL     ACCESS:     656902  HIT:     651689  MISS:       5213
cpu0_STLB LOAD      ACCESS:     493293  HIT:     490562  MISS:       2731
cpu0_STLB RFO       ACCESS:     163609  HIT:     161127  MISS:       2482
cpu0_STLB PREFETCH  ACCESS:          0  HIT:          0  MISS:          0
cpu0_STLB WRITEBACK ACCESS:          0  HIT:          0  MISS:          0
cpu0_STLB TRANSLATION ACCESS:          0  HIT:          0  MISS:          0
cpu0_STLB PREFETCH  REQUESTED:          0  ISSUED:          0  USEFUL:          0  USELESS:          0
cpu0_STLB AVERAGE MISS LATENCY: 311.867 cycles
cpu0_L1D TOTAL     ACCESS:  188669897  HIT:  179028900  MISS:    9640997
cpu0_L1D LOAD      ACCESS:  105626373  HIT:  102548627  MISS:    3077746
cpu0_L1D RFO       ACCESS:   83038513  HIT:   76476744  MISS:    6561769
cpu0_L1D PREFETCH  ACCESS:          0  HIT:          0  MISS:          0
cpu0_L1D WRITEBACK ACCESS:          0  HIT:          0  MISS:          0
cpu0_L1D TRANSLATION ACCESS:       5011  HIT:       3529  MISS:       1482
cpu0_L1D PREFETCH  REQUESTED:          0  ISSUED:          0  USEFUL:          0  USELESS:          0
cpu0_L1D AVERAGE MISS LATENCY: 569.109 cycles
cpu0_L2C TOTAL     ACCESS:   22415396  HIT:   16338512  MISS:    6076884
cpu0_L2C LOAD      ACCESS:    3480500  HIT:    2965728  MISS:     514772
cpu0_L2C RFO       ACCESS:    6561501  HIT:    1220567  MISS:    5340934
cpu0_L2C PREFETCH  ACCESS:    5414415  HIT:    5195164  MISS:     219251
cpu0_L2C WRITEBACK ACCESS:    6957498  HIT:    6956140  MISS:       1358
cpu0_L2C TRANSLATION ACCESS:       1482  HIT:        913  MISS:        569
cpu0_L2C PREFETCH  REQUESTED:    8586455  ISSUED:    6435183  USEFUL:     302244  USELESS:      27073
cpu0_L2C AVERAGE MISS LATENCY: 885.204 cycles
LLC TOTAL     ACCESS:   12115915  HIT:    6405931  MISS:    5709984
LLC LOAD      ACCESS:     404766  HIT:     187174  MISS:     217592
LLC RFO       ACCESS:    5340918  HIT:     123354  MISS:    5217564
LLC PREFETCH  ACCESS:     950913  HIT:     683819  MISS:     267094
LLC WRITEBACK ACCESS:    5418749  HIT:    5411368  MISS:       7381
LLC TRANSLATION ACCESS:        569  HIT:        216  MISS:        353
LLC PREFETCH  REQUESTED:          0  ISSUED:          0  USEFUL:          0  USELESS:          0
LLC AVERAGE MISS LATENCY: 943.391 cycles
Printing the final status 

DRAM Statistics
 CHANNEL 0
 RQ ROW_BUFFER_HIT:    1276208  ROW_BUFFER_MISS:    4425918
 DBUS AVG_CONGESTED_CYCLE:    3.99107
 WQ ROW_BUFFER_HIT:     889407  ROW_BUFFER_MISS:    4358458  FULL:          0


CPU 0 Branch Prediction Accuracy: 90.1568% MPKI: 13.1722 Average ROB Occupancy at Mispredict: 71.3787
Branch type MPKI
BRANCH_DIRECT_JUMP: 0.003136
BRANCH_INDIRECT: 0.001297
BRANCH_CONDITIONAL: 13.1522
BRANCH_DIRECT_CALL: 0.015511
BRANCH_INDIRECT_CALL: 0
BRANCH_RETURN: 4e-06

***************** Done with 627.cam4_s-573B.champsimtrace.xz using ppf-spp-dev, on Sun Apr 17 23:04:18 CDT 2022 ******************
