Started running file 644.nab_s-5853B.champsimtrace.xz at time Mon Apr 18 00:04:19 CDT 2022 with prefetcher ppf-spp-dev

*** ChampSim Multicore Out-of-Order Simulator ***

Warmup Instructions: 200000000
Simulation Instructions: 1000000000
Number of CPUs: 1
Off-chip DRAM Size: 4 GiB Channels: 1 Width: 64-bit Data Rate: 3200 MT/s

VirtualMemory physical capacity: 8588881920 num_ppages: 2096895
VirtualMemory page size: 4096 log2_page_size: 12

CPU 0 runs /home/faculty/p/pgratz/dpc3_traces/644.nab_s-5853B.champsimtrace.xz
CPU 0 Bimodal branch predictor
Basic BTB sets: 1024 ways: 8 indirect buffer size: 4096 RAS size: 64
cpu0_L2C PPF SPP DEV Prefetcher
Heartbeat CPU 0 instructions: 10000003 cycles: 2500090 heartbeat IPC: 3.99986 cumulative IPC: 3.99986 (Simulation time: 0 hr 0 min 33 sec) 
Heartbeat CPU 0 instructions: 20000003 cycles: 5000090 heartbeat IPC: 4 cumulative IPC: 3.99993 (Simulation time: 0 hr 1 min 5 sec) 
Heartbeat CPU 0 instructions: 30000003 cycles: 7500090 heartbeat IPC: 4 cumulative IPC: 3.99995 (Simulation time: 0 hr 1 min 37 sec) 
Heartbeat CPU 0 instructions: 40000003 cycles: 10000090 heartbeat IPC: 4 cumulative IPC: 3.99996 (Simulation time: 0 hr 2 min 9 sec) 
Heartbeat CPU 0 instructions: 50000003 cycles: 12500090 heartbeat IPC: 4 cumulative IPC: 3.99997 (Simulation time: 0 hr 2 min 41 sec) 
Heartbeat CPU 0 instructions: 60000003 cycles: 15000090 heartbeat IPC: 4 cumulative IPC: 3.99998 (Simulation time: 0 hr 3 min 14 sec) 
Heartbeat CPU 0 instructions: 70000003 cycles: 17500090 heartbeat IPC: 4 cumulative IPC: 3.99998 (Simulation time: 0 hr 3 min 46 sec) 
Heartbeat CPU 0 instructions: 80000003 cycles: 20000090 heartbeat IPC: 4 cumulative IPC: 3.99998 (Simulation time: 0 hr 4 min 18 sec) 
Heartbeat CPU 0 instructions: 90000003 cycles: 22500090 heartbeat IPC: 4 cumulative IPC: 3.99998 (Simulation time: 0 hr 4 min 50 sec) 
Heartbeat CPU 0 instructions: 100000003 cycles: 25000090 heartbeat IPC: 4 cumulative IPC: 3.99999 (Simulation time: 0 hr 5 min 23 sec) 
Heartbeat CPU 0 instructions: 110000003 cycles: 27500090 heartbeat IPC: 4 cumulative IPC: 3.99999 (Simulation time: 0 hr 5 min 55 sec) 
Heartbeat CPU 0 instructions: 120000003 cycles: 30000090 heartbeat IPC: 4 cumulative IPC: 3.99999 (Simulation time: 0 hr 6 min 27 sec) 
Heartbeat CPU 0 instructions: 130000003 cycles: 32500090 heartbeat IPC: 4 cumulative IPC: 3.99999 (Simulation time: 0 hr 7 min 0 sec) 
Heartbeat CPU 0 instructions: 140000003 cycles: 35000090 heartbeat IPC: 4 cumulative IPC: 3.99999 (Simulation time: 0 hr 7 min 32 sec) 
Heartbeat CPU 0 instructions: 150000003 cycles: 37500090 heartbeat IPC: 4 cumulative IPC: 3.99999 (Simulation time: 0 hr 8 min 4 sec) 
Heartbeat CPU 0 instructions: 160000003 cycles: 40000090 heartbeat IPC: 4 cumulative IPC: 3.99999 (Simulation time: 0 hr 8 min 37 sec) 
Heartbeat CPU 0 instructions: 170000003 cycles: 42500090 heartbeat IPC: 4 cumulative IPC: 3.99999 (Simulation time: 0 hr 9 min 9 sec) 
Heartbeat CPU 0 instructions: 180000003 cycles: 45000090 heartbeat IPC: 4 cumulative IPC: 3.99999 (Simulation time: 0 hr 9 min 42 sec) 
Heartbeat CPU 0 instructions: 190000003 cycles: 47500090 heartbeat IPC: 4 cumulative IPC: 3.99999 (Simulation time: 0 hr 10 min 14 sec) 
Heartbeat CPU 0 instructions: 200000003 cycles: 50000090 heartbeat IPC: 4 cumulative IPC: 3.99999 (Simulation time: 0 hr 10 min 46 sec) 

Warmup complete CPU 0 instructions: 200000003 cycles: 50000090 (Simulation time: 0 hr 10 min 46 sec) 

Heartbeat CPU 0 instructions: 210000002 cycles: 57842104 heartbeat IPC: 1.27518 cumulative IPC: 1.27518 (Simulation time: 0 hr 11 min 22 sec) 
Heartbeat CPU 0 instructions: 220000003 cycles: 65698465 heartbeat IPC: 1.27285 cumulative IPC: 1.27402 (Simulation time: 0 hr 11 min 58 sec) 
Heartbeat CPU 0 instructions: 230000001 cycles: 73537307 heartbeat IPC: 1.2757 cumulative IPC: 1.27458 (Simulation time: 0 hr 12 min 35 sec) 
Heartbeat CPU 0 instructions: 240000001 cycles: 81392326 heartbeat IPC: 1.27307 cumulative IPC: 1.2742 (Simulation time: 0 hr 13 min 11 sec) 
Heartbeat CPU 0 instructions: 250000003 cycles: 89293848 heartbeat IPC: 1.26558 cumulative IPC: 1.27247 (Simulation time: 0 hr 13 min 47 sec) 
Heartbeat CPU 0 instructions: 260000000 cycles: 97167411 heartbeat IPC: 1.27007 cumulative IPC: 1.27207 (Simulation time: 0 hr 14 min 23 sec) 
Heartbeat CPU 0 instructions: 270000002 cycles: 105009146 heartbeat IPC: 1.27523 cumulative IPC: 1.27252 (Simulation time: 0 hr 14 min 59 sec) 
Heartbeat CPU 0 instructions: 280000002 cycles: 112834683 heartbeat IPC: 1.27787 cumulative IPC: 1.27318 (Simulation time: 0 hr 15 min 35 sec) 
Heartbeat CPU 0 instructions: 290000000 cycles: 120660710 heartbeat IPC: 1.27779 cumulative IPC: 1.27369 (Simulation time: 0 hr 16 min 11 sec) 
Heartbeat CPU 0 instructions: 300000000 cycles: 128472744 heartbeat IPC: 1.28008 cumulative IPC: 1.27433 (Simulation time: 0 hr 16 min 46 sec) 
Heartbeat CPU 0 instructions: 310000004 cycles: 136295690 heartbeat IPC: 1.27829 cumulative IPC: 1.27469 (Simulation time: 0 hr 17 min 22 sec) 
Heartbeat CPU 0 instructions: 320000001 cycles: 144122440 heartbeat IPC: 1.27767 cumulative IPC: 1.27494 (Simulation time: 0 hr 17 min 58 sec) 
Heartbeat CPU 0 instructions: 330000002 cycles: 151992241 heartbeat IPC: 1.27068 cumulative IPC: 1.27461 (Simulation time: 0 hr 18 min 34 sec) 
Heartbeat CPU 0 instructions: 340000000 cycles: 159895975 heartbeat IPC: 1.26522 cumulative IPC: 1.27393 (Simulation time: 0 hr 19 min 10 sec) 
Heartbeat CPU 0 instructions: 350000000 cycles: 167791333 heartbeat IPC: 1.26657 cumulative IPC: 1.27344 (Simulation time: 0 hr 19 min 47 sec) 
Heartbeat CPU 0 instructions: 360000003 cycles: 175682627 heartbeat IPC: 1.26722 cumulative IPC: 1.27305 (Simulation time: 0 hr 20 min 23 sec) 
Heartbeat CPU 0 instructions: 370000003 cycles: 183555201 heartbeat IPC: 1.27023 cumulative IPC: 1.27288 (Simulation time: 0 hr 20 min 59 sec) 
Heartbeat CPU 0 instructions: 380000004 cycles: 191445961 heartbeat IPC: 1.26731 cumulative IPC: 1.27257 (Simulation time: 0 hr 21 min 35 sec) 
Heartbeat CPU 0 instructions: 390000004 cycles: 199304920 heartbeat IPC: 1.27243 cumulative IPC: 1.27256 (Simulation time: 0 hr 22 min 11 sec) 
Heartbeat CPU 0 instructions: 400000002 cycles: 207160811 heartbeat IPC: 1.27293 cumulative IPC: 1.27258 (Simulation time: 0 hr 22 min 47 sec) 
Heartbeat CPU 0 instructions: 410000003 cycles: 215006305 heartbeat IPC: 1.27462 cumulative IPC: 1.27268 (Simulation time: 0 hr 23 min 24 sec) 
Heartbeat CPU 0 instructions: 420000000 cycles: 222859178 heartbeat IPC: 1.27342 cumulative IPC: 1.27271 (Simulation time: 0 hr 24 min 0 sec) 
Heartbeat CPU 0 instructions: 430000000 cycles: 230736098 heartbeat IPC: 1.26953 cumulative IPC: 1.27257 (Simulation time: 0 hr 24 min 36 sec) 
Heartbeat CPU 0 instructions: 440000002 cycles: 238654175 heartbeat IPC: 1.26293 cumulative IPC: 1.27217 (Simulation time: 0 hr 25 min 12 sec) 
Heartbeat CPU 0 instructions: 450000004 cycles: 246578346 heartbeat IPC: 1.26196 cumulative IPC: 1.27176 (Simulation time: 0 hr 25 min 48 sec) 
Heartbeat CPU 0 instructions: 460000003 cycles: 254512738 heartbeat IPC: 1.26034 cumulative IPC: 1.27131 (Simulation time: 0 hr 26 min 25 sec) 
Heartbeat CPU 0 instructions: 470000003 cycles: 262505313 heartbeat IPC: 1.25116 cumulative IPC: 1.27056 (Simulation time: 0 hr 27 min 1 sec) 
Heartbeat CPU 0 instructions: 480000001 cycles: 270491061 heartbeat IPC: 1.25223 cumulative IPC: 1.26989 (Simulation time: 0 hr 27 min 37 sec) 
Heartbeat CPU 0 instructions: 490000003 cycles: 278468086 heartbeat IPC: 1.2536 cumulative IPC: 1.26932 (Simulation time: 0 hr 28 min 14 sec) 
Heartbeat CPU 0 instructions: 500000000 cycles: 286494852 heartbeat IPC: 1.24583 cumulative IPC: 1.26853 (Simulation time: 0 hr 28 min 50 sec) 
Heartbeat CPU 0 instructions: 510000000 cycles: 294532681 heartbeat IPC: 1.24412 cumulative IPC: 1.26772 (Simulation time: 0 hr 29 min 26 sec) 
Heartbeat CPU 0 instructions: 520000000 cycles: 302577846 heartbeat IPC: 1.24298 cumulative IPC: 1.26694 (Simulation time: 0 hr 30 min 3 sec) 
Heartbeat CPU 0 instructions: 530000003 cycles: 310595643 heartbeat IPC: 1.24723 cumulative IPC: 1.26633 (Simulation time: 0 hr 30 min 39 sec) 
Heartbeat CPU 0 instructions: 540000003 cycles: 318545645 heartbeat IPC: 1.25786 cumulative IPC: 1.26608 (Simulation time: 0 hr 31 min 16 sec) 
Heartbeat CPU 0 instructions: 550000002 cycles: 326488192 heartbeat IPC: 1.25904 cumulative IPC: 1.26588 (Simulation time: 0 hr 31 min 52 sec) 
Heartbeat CPU 0 instructions: 560000001 cycles: 334394087 heartbeat IPC: 1.26488 cumulative IPC: 1.26585 (Simulation time: 0 hr 32 min 28 sec) 
Heartbeat CPU 0 instructions: 570000002 cycles: 342328759 heartbeat IPC: 1.26029 cumulative IPC: 1.2657 (Simulation time: 0 hr 33 min 5 sec) 
Heartbeat CPU 0 instructions: 580000000 cycles: 350229803 heartbeat IPC: 1.26566 cumulative IPC: 1.2657 (Simulation time: 0 hr 33 min 41 sec) 
Heartbeat CPU 0 instructions: 590000001 cycles: 358199245 heartbeat IPC: 1.25479 cumulative IPC: 1.26542 (Simulation time: 0 hr 34 min 17 sec) 
Heartbeat CPU 0 instructions: 600000003 cycles: 366112736 heartbeat IPC: 1.26367 cumulative IPC: 1.26537 (Simulation time: 0 hr 34 min 53 sec) 
Heartbeat CPU 0 instructions: 610000001 cycles: 374053625 heartbeat IPC: 1.2593 cumulative IPC: 1.26522 (Simulation time: 0 hr 35 min 30 sec) 
Heartbeat CPU 0 instructions: 620000000 cycles: 381965411 heartbeat IPC: 1.26394 cumulative IPC: 1.26519 (Simulation time: 0 hr 36 min 6 sec) 
Heartbeat CPU 0 instructions: 630000002 cycles: 389926681 heartbeat IPC: 1.25608 cumulative IPC: 1.26498 (Simulation time: 0 hr 36 min 42 sec) 
Heartbeat CPU 0 instructions: 640000000 cycles: 397877297 heartbeat IPC: 1.25776 cumulative IPC: 1.26481 (Simulation time: 0 hr 37 min 18 sec) 
Heartbeat CPU 0 instructions: 650000002 cycles: 405826634 heartbeat IPC: 1.25797 cumulative IPC: 1.26466 (Simulation time: 0 hr 37 min 54 sec) 
Heartbeat CPU 0 instructions: 660000000 cycles: 413811580 heartbeat IPC: 1.25236 cumulative IPC: 1.26439 (Simulation time: 0 hr 38 min 31 sec) 
Heartbeat CPU 0 instructions: 670000004 cycles: 421841309 heartbeat IPC: 1.24537 cumulative IPC: 1.26398 (Simulation time: 0 hr 39 min 7 sec) 
Heartbeat CPU 0 instructions: 680000000 cycles: 429865643 heartbeat IPC: 1.24621 cumulative IPC: 1.2636 (Simulation time: 0 hr 39 min 44 sec) 
Heartbeat CPU 0 instructions: 690000001 cycles: 437850601 heartbeat IPC: 1.25235 cumulative IPC: 1.26337 (Simulation time: 0 hr 40 min 20 sec) 
Heartbeat CPU 0 instructions: 700000004 cycles: 445816163 heartbeat IPC: 1.2554 cumulative IPC: 1.26321 (Simulation time: 0 hr 40 min 56 sec) 
Heartbeat CPU 0 instructions: 710000001 cycles: 453778961 heartbeat IPC: 1.25584 cumulative IPC: 1.26307 (Simulation time: 0 hr 41 min 32 sec) 
Heartbeat CPU 0 instructions: 720000003 cycles: 461868668 heartbeat IPC: 1.23614 cumulative IPC: 1.26254 (Simulation time: 0 hr 42 min 9 sec) 
Heartbeat CPU 0 instructions: 730000001 cycles: 469930026 heartbeat IPC: 1.24049 cumulative IPC: 1.26212 (Simulation time: 0 hr 42 min 46 sec) 
Heartbeat CPU 0 instructions: 740000002 cycles: 477898782 heartbeat IPC: 1.2549 cumulative IPC: 1.26198 (Simulation time: 0 hr 43 min 22 sec) 
Heartbeat CPU 0 instructions: 750000003 cycles: 485906396 heartbeat IPC: 1.24881 cumulative IPC: 1.26174 (Simulation time: 0 hr 43 min 58 sec) 
Heartbeat CPU 0 instructions: 760000001 cycles: 493847481 heartbeat IPC: 1.25927 cumulative IPC: 1.26169 (Simulation time: 0 hr 44 min 34 sec) 
Heartbeat CPU 0 instructions: 770000001 cycles: 501781961 heartbeat IPC: 1.26032 cumulative IPC: 1.26167 (Simulation time: 0 hr 45 min 11 sec) 
Heartbeat CPU 0 instructions: 780000002 cycles: 509725178 heartbeat IPC: 1.25894 cumulative IPC: 1.26162 (Simulation time: 0 hr 45 min 47 sec) 
Heartbeat CPU 0 instructions: 790000001 cycles: 517589419 heartbeat IPC: 1.27158 cumulative IPC: 1.26179 (Simulation time: 0 hr 46 min 23 sec) 
Heartbeat CPU 0 instructions: 800000000 cycles: 525477672 heartbeat IPC: 1.26771 cumulative IPC: 1.26189 (Simulation time: 0 hr 46 min 59 sec) 
Heartbeat CPU 0 instructions: 810000004 cycles: 533363490 heartbeat IPC: 1.2681 cumulative IPC: 1.26199 (Simulation time: 0 hr 47 min 35 sec) 
Heartbeat CPU 0 instructions: 820000000 cycles: 541204897 heartbeat IPC: 1.27528 cumulative IPC: 1.2622 (Simulation time: 0 hr 48 min 11 sec) 
Heartbeat CPU 0 instructions: 830000001 cycles: 549049822 heartbeat IPC: 1.27471 cumulative IPC: 1.2624 (Simulation time: 0 hr 48 min 47 sec) 
Heartbeat CPU 0 instructions: 840000000 cycles: 556899861 heartbeat IPC: 1.27388 cumulative IPC: 1.26258 (Simulation time: 0 hr 49 min 23 sec) 
Heartbeat CPU 0 instructions: 850000003 cycles: 564762834 heartbeat IPC: 1.27178 cumulative IPC: 1.26272 (Simulation time: 0 hr 49 min 59 sec) 
Heartbeat CPU 0 instructions: 860000004 cycles: 572640740 heartbeat IPC: 1.26937 cumulative IPC: 1.26282 (Simulation time: 0 hr 50 min 36 sec) 
Heartbeat CPU 0 instructions: 870000004 cycles: 580499986 heartbeat IPC: 1.27239 cumulative IPC: 1.26296 (Simulation time: 0 hr 51 min 12 sec) 
Heartbeat CPU 0 instructions: 880000000 cycles: 588383711 heartbeat IPC: 1.26844 cumulative IPC: 1.26304 (Simulation time: 0 hr 51 min 48 sec) 
Heartbeat CPU 0 instructions: 890000000 cycles: 596238114 heartbeat IPC: 1.27317 cumulative IPC: 1.26319 (Simulation time: 0 hr 52 min 24 sec) 
Heartbeat CPU 0 instructions: 900000000 cycles: 604072805 heartbeat IPC: 1.27637 cumulative IPC: 1.26337 (Simulation time: 0 hr 53 min 0 sec) 
Heartbeat CPU 0 instructions: 910000001 cycles: 611888986 heartbeat IPC: 1.2794 cumulative IPC: 1.26359 (Simulation time: 0 hr 53 min 36 sec) 
Heartbeat CPU 0 instructions: 920000004 cycles: 619735451 heartbeat IPC: 1.27446 cumulative IPC: 1.26374 (Simulation time: 0 hr 54 min 11 sec) 
Heartbeat CPU 0 instructions: 930000000 cycles: 627670689 heartbeat IPC: 1.2602 cumulative IPC: 1.2637 (Simulation time: 0 hr 54 min 47 sec) 
Heartbeat CPU 0 instructions: 940000000 cycles: 635682395 heartbeat IPC: 1.24817 cumulative IPC: 1.26348 (Simulation time: 0 hr 55 min 23 sec) 
Heartbeat CPU 0 instructions: 950000000 cycles: 643682713 heartbeat IPC: 1.24995 cumulative IPC: 1.2633 (Simulation time: 0 hr 56 min 0 sec) 
Heartbeat CPU 0 instructions: 960000002 cycles: 651810691 heartbeat IPC: 1.23032 cumulative IPC: 1.26286 (Simulation time: 0 hr 56 min 36 sec) 
Heartbeat CPU 0 instructions: 970000000 cycles: 659928226 heartbeat IPC: 1.2319 cumulative IPC: 1.26244 (Simulation time: 0 hr 57 min 13 sec) 
Heartbeat CPU 0 instructions: 980000000 cycles: 668014336 heartbeat IPC: 1.23669 cumulative IPC: 1.26211 (Simulation time: 0 hr 57 min 50 sec) 
Heartbeat CPU 0 instructions: 990000004 cycles: 676089537 heartbeat IPC: 1.23836 cumulative IPC: 1.2618 (Simulation time: 0 hr 58 min 26 sec) 
Heartbeat CPU 0 instructions: 1000000001 cycles: 684159102 heartbeat IPC: 1.23922 cumulative IPC: 1.26151 (Simulation time: 0 hr 59 min 3 sec) 
Heartbeat CPU 0 instructions: 1010000002 cycles: 692330336 heartbeat IPC: 1.22381 cumulative IPC: 1.26103 (Simulation time: 0 hr 59 min 40 sec) 
Heartbeat CPU 0 instructions: 1020000002 cycles: 700583532 heartbeat IPC: 1.21165 cumulative IPC: 1.26041 (Simulation time: 1 hr 0 min 17 sec) 
Heartbeat CPU 0 instructions: 1030000001 cycles: 708867693 heartbeat IPC: 1.20712 cumulative IPC: 1.25974 (Simulation time: 1 hr 0 min 54 sec) 
Heartbeat CPU 0 instructions: 1040000002 cycles: 717187474 heartbeat IPC: 1.20195 cumulative IPC: 1.25902 (Simulation time: 1 hr 1 min 31 sec) 
Heartbeat CPU 0 instructions: 1050000001 cycles: 725574807 heartbeat IPC: 1.19227 cumulative IPC: 1.25819 (Simulation time: 1 hr 2 min 8 sec) 
Heartbeat CPU 0 instructions: 1060000002 cycles: 733943367 heartbeat IPC: 1.19495 cumulative IPC: 1.25741 (Simulation time: 1 hr 2 min 45 sec) 
Heartbeat CPU 0 instructions: 1070000000 cycles: 742320732 heartbeat IPC: 1.19369 cumulative IPC: 1.25664 (Simulation time: 1 hr 3 min 22 sec) 
Heartbeat CPU 0 instructions: 1080000000 cycles: 750688612 heartbeat IPC: 1.19505 cumulative IPC: 1.25591 (Simulation time: 1 hr 3 min 59 sec) 
Heartbeat CPU 0 instructions: 1090000000 cycles: 759108567 heartbeat IPC: 1.18765 cumulative IPC: 1.2551 (Simulation time: 1 hr 4 min 36 sec) 
Heartbeat CPU 0 instructions: 1100000000 cycles: 767508378 heartbeat IPC: 1.1905 cumulative IPC: 1.25434 (Simulation time: 1 hr 5 min 13 sec) 
Heartbeat CPU 0 instructions: 1110000002 cycles: 775846835 heartbeat IPC: 1.19926 cumulative IPC: 1.25371 (Simulation time: 1 hr 5 min 50 sec) 
Heartbeat CPU 0 instructions: 1120000003 cycles: 784109351 heartbeat IPC: 1.21029 cumulative IPC: 1.25322 (Simulation time: 1 hr 6 min 27 sec) 
Heartbeat CPU 0 instructions: 1130000002 cycles: 792072992 heartbeat IPC: 1.25571 cumulative IPC: 1.25325 (Simulation time: 1 hr 7 min 3 sec) 
Heartbeat CPU 0 instructions: 1140000000 cycles: 800015743 heartbeat IPC: 1.25901 cumulative IPC: 1.25331 (Simulation time: 1 hr 7 min 39 sec) 
Heartbeat CPU 0 instructions: 1150000001 cycles: 807969874 heartbeat IPC: 1.25721 cumulative IPC: 1.25335 (Simulation time: 1 hr 8 min 15 sec) 
Heartbeat CPU 0 instructions: 1160000000 cycles: 815913782 heartbeat IPC: 1.25883 cumulative IPC: 1.2534 (Simulation time: 1 hr 8 min 51 sec) 
Heartbeat CPU 0 instructions: 1170000001 cycles: 823973837 heartbeat IPC: 1.24069 cumulative IPC: 1.25327 (Simulation time: 1 hr 9 min 27 sec) 
Heartbeat CPU 0 instructions: 1180000002 cycles: 832157153 heartbeat IPC: 1.222 cumulative IPC: 1.25295 (Simulation time: 1 hr 10 min 4 sec) 
Heartbeat CPU 0 instructions: 1190000001 cycles: 840230485 heartbeat IPC: 1.23865 cumulative IPC: 1.2528 (Simulation time: 1 hr 10 min 40 sec) 
Heartbeat CPU 0 instructions: 1200000001 cycles: 848317555 heartbeat IPC: 1.23654 cumulative IPC: 1.25263 (Simulation time: 1 hr 11 min 17 sec) 
Finished CPU 0 instructions: 1000000003 cycles: 798317466 cumulative IPC: 1.25263 (Simulation time: 1 hr 11 min 17 sec) 

ChampSim completed all CPUs

Region of Interest Statistics

CPU 0 cumulative IPC: 1.25263 instructions: 1000000003 cycles: 798317466
cpu0_DTLB TOTAL     ACCESS:  227782544  HIT:  225560209  MISS:    2222335
cpu0_DTLB LOAD      ACCESS:  175943101  HIT:  173737259  MISS:    2205842
cpu0_DTLB RFO       ACCESS:   51839443  HIT:   51822950  MISS:      16493
cpu0_DTLB PREFETCH  ACCESS:          0  HIT:          0  MISS:          0
cpu0_DTLB WRITEBACK ACCESS:          0  HIT:          0  MISS:          0
cpu0_DTLB TRANSLATION ACCESS:          0  HIT:          0  MISS:          0
cpu0_DTLB PREFETCH  REQUESTED:          0  ISSUED:          0  USEFUL:          0  USELESS:          0
cpu0_DTLB AVERAGE MISS LATENCY: 11.7376 cycles
cpu0_ITLB TOTAL     ACCESS:  107763493  HIT:  107763493  MISS:          0
cpu0_ITLB LOAD      ACCESS:  107763493  HIT:  107763493  MISS:          0
cpu0_ITLB RFO       ACCESS:          0  HIT:          0  MISS:          0
cpu0_ITLB PREFETCH  ACCESS:          0  HIT:          0  MISS:          0
cpu0_ITLB WRITEBACK ACCESS:          0  HIT:          0  MISS:          0
cpu0_ITLB TRANSLATION ACCESS:          0  HIT:          0  MISS:          0
cpu0_ITLB PREFETCH  REQUESTED:          0  ISSUED:          0  USEFUL:          0  USELESS:          0
cpu0_ITLB AVERAGE MISS LATENCY: -nan cycles
cpu0_L1I TOTAL     ACCESS:      21977  HIT:      21975  MISS:          2
cpu0_L1I LOAD      ACCESS:      21977  HIT:      21975  MISS:          2
cpu0_L1I RFO       ACCESS:          0  HIT:          0  MISS:          0
cpu0_L1I PREFETCH  ACCESS:          0  HIT:          0  MISS:          0
cpu0_L1I WRITEBACK ACCESS:          0  HIT:          0  MISS:          0
cpu0_L1I TRANSLATION ACCESS:          0  HIT:          0  MISS:          0
cpu0_L1I PREFETCH  REQUESTED:          0  ISSUED:          0  USEFUL:          0  USELESS:          0
cpu0_L1I AVERAGE MISS LATENCY: 194 cycles
cpu0_STLB TOTAL     ACCESS:    2222335  HIT:    2214696  MISS:       7639
cpu0_STLB LOAD      ACCESS:    2205842  HIT:    2198203  MISS:       7639
cpu0_STLB RFO       ACCESS:      16493  HIT:      16493  MISS:          0
cpu0_STLB PREFETCH  ACCESS:          0  HIT:          0  MISS:          0
cpu0_STLB WRITEBACK ACCESS:          0  HIT:          0  MISS:          0
cpu0_STLB TRANSLATION ACCESS:          0  HIT:          0  MISS:          0
cpu0_STLB PREFETCH  REQUESTED:          0  ISSUED:          0  USEFUL:          0  USELESS:          0
cpu0_STLB AVERAGE MISS LATENCY: 214.363 cycles
cpu0_L1D TOTAL     ACCESS:  321247558  HIT:  317330514  MISS:    3917044
cpu0_L1D LOAD      ACCESS:  210622265  HIT:  206715054  MISS:    3907211
cpu0_L1D RFO       ACCESS:  110617659  HIT:  110611424  MISS:       6235
cpu0_L1D PREFETCH  ACCESS:          0  HIT:          0  MISS:          0
cpu0_L1D WRITEBACK ACCESS:          0  HIT:          0  MISS:          0
cpu0_L1D TRANSLATION ACCESS:       7634  HIT:       4036  MISS:       3598
cpu0_L1D PREFETCH  REQUESTED:          0  ISSUED:          0  USEFUL:          0  USELESS:          0
cpu0_L1D AVERAGE MISS LATENCY: 11.6971 cycles
cpu0_L2C TOTAL     ACCESS:   14253274  HIT:   14041646  MISS:     211628
cpu0_L2C LOAD      ACCESS:    3907203  HIT:    3885765  MISS:      21438
cpu0_L2C RFO       ACCESS:       6234  HIT:       5714  MISS:        520
cpu0_L2C PREFETCH  ACCESS:    8996248  HIT:    8806716  MISS:     189532
cpu0_L2C WRITEBACK ACCESS:    1339991  HIT:    1339961  MISS:         30
cpu0_L2C TRANSLATION ACCESS:       3598  HIT:       3490  MISS:        108
cpu0_L2C PREFETCH  REQUESTED:    9649252  ISSUED:    9608402  USEFUL:     179207  USELESS:      10242
cpu0_L2C AVERAGE MISS LATENCY: 42.9761 cycles
LLC TOTAL     ACCESS:     830413  HIT:     609563  MISS:     220850
LLC LOAD      ACCESS:      21435  HIT:       7600  MISS:      13835
LLC RFO       ACCESS:        520  HIT:        484  MISS:         36
LLC PREFETCH  ACCESS:     801165  HIT:     596746  MISS:     204419
LLC WRITEBACK ACCESS:       7185  HIT:       4676  MISS:       2509
LLC TRANSLATION ACCESS:        108  HIT:         57  MISS:         51
LLC PREFETCH  REQUESTED:          0  ISSUED:          0  USEFUL:          0  USELESS:          0
LLC AVERAGE MISS LATENCY: 106.351 cycles
Printing the final status 

DRAM Statistics
 CHANNEL 0
 RQ ROW_BUFFER_HIT:     135526  ROW_BUFFER_MISS:      82815
 DBUS AVG_CONGESTED_CYCLE:    3.95252
 WQ ROW_BUFFER_HIT:         82  ROW_BUFFER_MISS:       4729  FULL:          0


CPU 0 Branch Prediction Accuracy: 94.2299% MPKI: 5.58664 Average ROB Occupancy at Mispredict: 134.564
Branch type MPKI
BRANCH_DIRECT_JUMP: 2e-06
BRANCH_INDIRECT: 0
BRANCH_CONDITIONAL: 5.58664
BRANCH_DIRECT_CALL: 1e-06
BRANCH_INDIRECT_CALL: 0
BRANCH_RETURN: 1e-06

***************** Done with 644.nab_s-5853B.champsimtrace.xz using ppf-spp-dev, on Mon Apr 18 01:15:36 CDT 2022 ******************
