Started running file 638.imagick_s-10316B.champsimtrace.xz at time Sun Apr 17 23:04:19 CDT 2022 with prefetcher ppf-spp-dev

*** ChampSim Multicore Out-of-Order Simulator ***

Warmup Instructions: 200000000
Simulation Instructions: 1000000000
Number of CPUs: 1
Off-chip DRAM Size: 4 GiB Channels: 1 Width: 64-bit Data Rate: 3200 MT/s

VirtualMemory physical capacity: 8588881920 num_ppages: 2096895
VirtualMemory page size: 4096 log2_page_size: 12

CPU 0 runs /home/faculty/p/pgratz/dpc3_traces/638.imagick_s-10316B.champsimtrace.xz
CPU 0 Bimodal branch predictor
Basic BTB sets: 1024 ways: 8 indirect buffer size: 4096 RAS size: 64
cpu0_L2C PPF SPP DEV Prefetcher
Heartbeat CPU 0 instructions: 10000002 cycles: 2500064 heartbeat IPC: 3.9999 cumulative IPC: 3.9999 (Simulation time: 0 hr 0 min 26 sec) 
Heartbeat CPU 0 instructions: 20000002 cycles: 5000064 heartbeat IPC: 4 cumulative IPC: 3.99995 (Simulation time: 0 hr 0 min 53 sec) 
Heartbeat CPU 0 instructions: 30000002 cycles: 7500064 heartbeat IPC: 4 cumulative IPC: 3.99997 (Simulation time: 0 hr 1 min 19 sec) 
Heartbeat CPU 0 instructions: 40000002 cycles: 10000064 heartbeat IPC: 4 cumulative IPC: 3.99997 (Simulation time: 0 hr 1 min 45 sec) 
Heartbeat CPU 0 instructions: 50000002 cycles: 12500064 heartbeat IPC: 4 cumulative IPC: 3.99998 (Simulation time: 0 hr 2 min 11 sec) 
Heartbeat CPU 0 instructions: 60000002 cycles: 15000064 heartbeat IPC: 4 cumulative IPC: 3.99998 (Simulation time: 0 hr 2 min 37 sec) 
Heartbeat CPU 0 instructions: 70000002 cycles: 17500064 heartbeat IPC: 4 cumulative IPC: 3.99999 (Simulation time: 0 hr 3 min 4 sec) 
Heartbeat CPU 0 instructions: 80000002 cycles: 20000064 heartbeat IPC: 4 cumulative IPC: 3.99999 (Simulation time: 0 hr 3 min 30 sec) 
Heartbeat CPU 0 instructions: 90000002 cycles: 22500064 heartbeat IPC: 4 cumulative IPC: 3.99999 (Simulation time: 0 hr 3 min 56 sec) 
Heartbeat CPU 0 instructions: 100000002 cycles: 25000064 heartbeat IPC: 4 cumulative IPC: 3.99999 (Simulation time: 0 hr 4 min 22 sec) 
Heartbeat CPU 0 instructions: 110000002 cycles: 27500064 heartbeat IPC: 4 cumulative IPC: 3.99999 (Simulation time: 0 hr 4 min 48 sec) 
Heartbeat CPU 0 instructions: 120000002 cycles: 30000064 heartbeat IPC: 4 cumulative IPC: 3.99999 (Simulation time: 0 hr 5 min 15 sec) 
Heartbeat CPU 0 instructions: 130000002 cycles: 32500064 heartbeat IPC: 4 cumulative IPC: 3.99999 (Simulation time: 0 hr 5 min 41 sec) 
Heartbeat CPU 0 instructions: 140000002 cycles: 35000064 heartbeat IPC: 4 cumulative IPC: 3.99999 (Simulation time: 0 hr 6 min 7 sec) 
Heartbeat CPU 0 instructions: 150000002 cycles: 37500064 heartbeat IPC: 4 cumulative IPC: 3.99999 (Simulation time: 0 hr 6 min 33 sec) 
Heartbeat CPU 0 instructions: 160000002 cycles: 40000064 heartbeat IPC: 4 cumulative IPC: 3.99999 (Simulation time: 0 hr 6 min 59 sec) 
Heartbeat CPU 0 instructions: 170000002 cycles: 42500064 heartbeat IPC: 4 cumulative IPC: 3.99999 (Simulation time: 0 hr 7 min 26 sec) 
Heartbeat CPU 0 instructions: 180000002 cycles: 45000064 heartbeat IPC: 4 cumulative IPC: 3.99999 (Simulation time: 0 hr 7 min 52 sec) 
Heartbeat CPU 0 instructions: 190000002 cycles: 47500064 heartbeat IPC: 4 cumulative IPC: 3.99999 (Simulation time: 0 hr 8 min 18 sec) 
Heartbeat CPU 0 instructions: 200000002 cycles: 50000064 heartbeat IPC: 4 cumulative IPC: 3.99999 (Simulation time: 0 hr 8 min 44 sec) 

Warmup complete CPU 0 instructions: 200000002 cycles: 50000064 (Simulation time: 0 hr 8 min 44 sec) 

Heartbeat CPU 0 instructions: 210000000 cycles: 53414888 heartbeat IPC: 2.92841 cumulative IPC: 2.92841 (Simulation time: 0 hr 9 min 12 sec) 
Heartbeat CPU 0 instructions: 220000004 cycles: 56831200 heartbeat IPC: 2.92713 cumulative IPC: 2.92777 (Simulation time: 0 hr 9 min 40 sec) 
Heartbeat CPU 0 instructions: 230000004 cycles: 60246204 heartbeat IPC: 2.92825 cumulative IPC: 2.92793 (Simulation time: 0 hr 10 min 9 sec) 
Heartbeat CPU 0 instructions: 240000004 cycles: 63661885 heartbeat IPC: 2.92767 cumulative IPC: 2.92787 (Simulation time: 0 hr 10 min 37 sec) 
Heartbeat CPU 0 instructions: 250000000 cycles: 67077079 heartbeat IPC: 2.92809 cumulative IPC: 2.92791 (Simulation time: 0 hr 11 min 5 sec) 
Heartbeat CPU 0 instructions: 260000001 cycles: 70493492 heartbeat IPC: 2.92705 cumulative IPC: 2.92777 (Simulation time: 0 hr 11 min 33 sec) 
Heartbeat CPU 0 instructions: 270000001 cycles: 73908935 heartbeat IPC: 2.92788 cumulative IPC: 2.92778 (Simulation time: 0 hr 12 min 0 sec) 
Heartbeat CPU 0 instructions: 280000002 cycles: 77324210 heartbeat IPC: 2.92802 cumulative IPC: 2.92781 (Simulation time: 0 hr 12 min 28 sec) 
Heartbeat CPU 0 instructions: 290000000 cycles: 80739581 heartbeat IPC: 2.92794 cumulative IPC: 2.92783 (Simulation time: 0 hr 12 min 56 sec) 
Heartbeat CPU 0 instructions: 300000002 cycles: 84154653 heartbeat IPC: 2.9282 cumulative IPC: 2.92786 (Simulation time: 0 hr 13 min 24 sec) 
Heartbeat CPU 0 instructions: 310000000 cycles: 87569155 heartbeat IPC: 2.92868 cumulative IPC: 2.92794 (Simulation time: 0 hr 13 min 52 sec) 
Heartbeat CPU 0 instructions: 320000002 cycles: 90984527 heartbeat IPC: 2.92794 cumulative IPC: 2.92794 (Simulation time: 0 hr 14 min 20 sec) 
Heartbeat CPU 0 instructions: 330000002 cycles: 94400239 heartbeat IPC: 2.92765 cumulative IPC: 2.92792 (Simulation time: 0 hr 14 min 48 sec) 
Heartbeat CPU 0 instructions: 340000002 cycles: 97815289 heartbeat IPC: 2.92821 cumulative IPC: 2.92794 (Simulation time: 0 hr 15 min 16 sec) 
Heartbeat CPU 0 instructions: 350000003 cycles: 101230318 heartbeat IPC: 2.92823 cumulative IPC: 2.92796 (Simulation time: 0 hr 15 min 44 sec) 
Heartbeat CPU 0 instructions: 360000002 cycles: 104645499 heartbeat IPC: 2.9281 cumulative IPC: 2.92797 (Simulation time: 0 hr 16 min 12 sec) 
Heartbeat CPU 0 instructions: 370000003 cycles: 108061254 heartbeat IPC: 2.92761 cumulative IPC: 2.92795 (Simulation time: 0 hr 16 min 40 sec) 
Heartbeat CPU 0 instructions: 380000004 cycles: 111475688 heartbeat IPC: 2.92874 cumulative IPC: 2.92799 (Simulation time: 0 hr 17 min 8 sec) 
Heartbeat CPU 0 instructions: 390000002 cycles: 114891739 heartbeat IPC: 2.92736 cumulative IPC: 2.92796 (Simulation time: 0 hr 17 min 36 sec) 
Heartbeat CPU 0 instructions: 400000001 cycles: 118306477 heartbeat IPC: 2.92848 cumulative IPC: 2.92798 (Simulation time: 0 hr 18 min 4 sec) 
Heartbeat CPU 0 instructions: 410000004 cycles: 121722202 heartbeat IPC: 2.92764 cumulative IPC: 2.92797 (Simulation time: 0 hr 18 min 32 sec) 
Heartbeat CPU 0 instructions: 420000003 cycles: 125136572 heartbeat IPC: 2.9288 cumulative IPC: 2.928 (Simulation time: 0 hr 19 min 0 sec) 
Heartbeat CPU 0 instructions: 430000001 cycles: 128553187 heartbeat IPC: 2.92687 cumulative IPC: 2.92795 (Simulation time: 0 hr 19 min 28 sec) 
Heartbeat CPU 0 instructions: 440000003 cycles: 131968007 heartbeat IPC: 2.92841 cumulative IPC: 2.92797 (Simulation time: 0 hr 19 min 56 sec) 
Heartbeat CPU 0 instructions: 450000002 cycles: 135384059 heartbeat IPC: 2.92736 cumulative IPC: 2.92795 (Simulation time: 0 hr 20 min 24 sec) 
Heartbeat CPU 0 instructions: 460000002 cycles: 138798069 heartbeat IPC: 2.92911 cumulative IPC: 2.92799 (Simulation time: 0 hr 20 min 52 sec) 
Heartbeat CPU 0 instructions: 470000001 cycles: 142214379 heartbeat IPC: 2.92713 cumulative IPC: 2.92796 (Simulation time: 0 hr 21 min 20 sec) 
Heartbeat CPU 0 instructions: 480000001 cycles: 145628341 heartbeat IPC: 2.92915 cumulative IPC: 2.928 (Simulation time: 0 hr 21 min 48 sec) 
Heartbeat CPU 0 instructions: 490000004 cycles: 149044654 heartbeat IPC: 2.92713 cumulative IPC: 2.92797 (Simulation time: 0 hr 22 min 16 sec) 
Heartbeat CPU 0 instructions: 500000003 cycles: 152459446 heartbeat IPC: 2.92844 cumulative IPC: 2.92799 (Simulation time: 0 hr 22 min 44 sec) 
Heartbeat CPU 0 instructions: 510000000 cycles: 155876276 heartbeat IPC: 2.92669 cumulative IPC: 2.92795 (Simulation time: 0 hr 23 min 12 sec) 
Heartbeat CPU 0 instructions: 520000000 cycles: 159291078 heartbeat IPC: 2.92843 cumulative IPC: 2.92796 (Simulation time: 0 hr 23 min 40 sec) 
Heartbeat CPU 0 instructions: 530000001 cycles: 162708142 heartbeat IPC: 2.92649 cumulative IPC: 2.92792 (Simulation time: 0 hr 24 min 8 sec) 
Heartbeat CPU 0 instructions: 540000003 cycles: 166122885 heartbeat IPC: 2.92848 cumulative IPC: 2.92793 (Simulation time: 0 hr 24 min 36 sec) 
Heartbeat CPU 0 instructions: 550000002 cycles: 169538965 heartbeat IPC: 2.92733 cumulative IPC: 2.92792 (Simulation time: 0 hr 25 min 4 sec) 
Heartbeat CPU 0 instructions: 560000002 cycles: 172954414 heartbeat IPC: 2.92787 cumulative IPC: 2.92792 (Simulation time: 0 hr 25 min 32 sec) 
Heartbeat CPU 0 instructions: 570000000 cycles: 176371233 heartbeat IPC: 2.9267 cumulative IPC: 2.92788 (Simulation time: 0 hr 26 min 0 sec) 
Heartbeat CPU 0 instructions: 580000000 cycles: 179786441 heartbeat IPC: 2.92808 cumulative IPC: 2.92789 (Simulation time: 0 hr 26 min 28 sec) 
Heartbeat CPU 0 instructions: 590000000 cycles: 183202701 heartbeat IPC: 2.92718 cumulative IPC: 2.92787 (Simulation time: 0 hr 26 min 56 sec) 
Heartbeat CPU 0 instructions: 600000002 cycles: 186617705 heartbeat IPC: 2.92825 cumulative IPC: 2.92788 (Simulation time: 0 hr 27 min 24 sec) 
Heartbeat CPU 0 instructions: 610000001 cycles: 190034424 heartbeat IPC: 2.92678 cumulative IPC: 2.92785 (Simulation time: 0 hr 27 min 52 sec) 
Heartbeat CPU 0 instructions: 620000003 cycles: 193449204 heartbeat IPC: 2.92845 cumulative IPC: 2.92787 (Simulation time: 0 hr 28 min 20 sec) 
Heartbeat CPU 0 instructions: 630000001 cycles: 196866130 heartbeat IPC: 2.92661 cumulative IPC: 2.92784 (Simulation time: 0 hr 28 min 48 sec) 
Heartbeat CPU 0 instructions: 640000001 cycles: 200281492 heartbeat IPC: 2.92795 cumulative IPC: 2.92784 (Simulation time: 0 hr 29 min 16 sec) 
Heartbeat CPU 0 instructions: 650000004 cycles: 203698206 heartbeat IPC: 2.92679 cumulative IPC: 2.92782 (Simulation time: 0 hr 29 min 44 sec) 
Heartbeat CPU 0 instructions: 660000003 cycles: 207113740 heartbeat IPC: 2.9278 cumulative IPC: 2.92782 (Simulation time: 0 hr 30 min 12 sec) 
Heartbeat CPU 0 instructions: 670000004 cycles: 210530388 heartbeat IPC: 2.92685 cumulative IPC: 2.9278 (Simulation time: 0 hr 30 min 40 sec) 
Heartbeat CPU 0 instructions: 680000001 cycles: 213945731 heartbeat IPC: 2.92796 cumulative IPC: 2.9278 (Simulation time: 0 hr 31 min 8 sec) 
Heartbeat CPU 0 instructions: 690000000 cycles: 217361316 heartbeat IPC: 2.92776 cumulative IPC: 2.9278 (Simulation time: 0 hr 31 min 36 sec) 
Heartbeat CPU 0 instructions: 700000004 cycles: 220776351 heartbeat IPC: 2.92823 cumulative IPC: 2.92781 (Simulation time: 0 hr 32 min 4 sec) 
Heartbeat CPU 0 instructions: 710000000 cycles: 224191855 heartbeat IPC: 2.92782 cumulative IPC: 2.92781 (Simulation time: 0 hr 32 min 32 sec) 
Heartbeat CPU 0 instructions: 720000000 cycles: 227606661 heartbeat IPC: 2.92842 cumulative IPC: 2.92782 (Simulation time: 0 hr 33 min 0 sec) 
Heartbeat CPU 0 instructions: 730000000 cycles: 231022094 heartbeat IPC: 2.92789 cumulative IPC: 2.92782 (Simulation time: 0 hr 33 min 28 sec) 
Heartbeat CPU 0 instructions: 740000004 cycles: 234437965 heartbeat IPC: 2.92751 cumulative IPC: 2.92781 (Simulation time: 0 hr 33 min 56 sec) 
Heartbeat CPU 0 instructions: 750000004 cycles: 237852757 heartbeat IPC: 2.92844 cumulative IPC: 2.92783 (Simulation time: 0 hr 34 min 24 sec) 
Heartbeat CPU 0 instructions: 760000003 cycles: 241268754 heartbeat IPC: 2.9274 cumulative IPC: 2.92782 (Simulation time: 0 hr 34 min 52 sec) 
Heartbeat CPU 0 instructions: 770000003 cycles: 244684837 heartbeat IPC: 2.92733 cumulative IPC: 2.92781 (Simulation time: 0 hr 35 min 20 sec) 
Heartbeat CPU 0 instructions: 780000002 cycles: 248100893 heartbeat IPC: 2.92735 cumulative IPC: 2.9278 (Simulation time: 0 hr 35 min 48 sec) 
Heartbeat CPU 0 instructions: 790000002 cycles: 251516135 heartbeat IPC: 2.92805 cumulative IPC: 2.92781 (Simulation time: 0 hr 36 min 16 sec) 
Heartbeat CPU 0 instructions: 800000001 cycles: 254932182 heartbeat IPC: 2.92736 cumulative IPC: 2.9278 (Simulation time: 0 hr 36 min 44 sec) 
Heartbeat CPU 0 instructions: 810000004 cycles: 258346818 heartbeat IPC: 2.92857 cumulative IPC: 2.92781 (Simulation time: 0 hr 37 min 12 sec) 
Heartbeat CPU 0 instructions: 820000003 cycles: 261762776 heartbeat IPC: 2.92744 cumulative IPC: 2.92781 (Simulation time: 0 hr 37 min 40 sec) 
Heartbeat CPU 0 instructions: 830000001 cycles: 265176507 heartbeat IPC: 2.92935 cumulative IPC: 2.92783 (Simulation time: 0 hr 38 min 8 sec) 
Heartbeat CPU 0 instructions: 840000003 cycles: 268593063 heartbeat IPC: 2.92692 cumulative IPC: 2.92782 (Simulation time: 0 hr 38 min 36 sec) 
Heartbeat CPU 0 instructions: 850000004 cycles: 272007147 heartbeat IPC: 2.92904 cumulative IPC: 2.92783 (Simulation time: 0 hr 39 min 4 sec) 
Heartbeat CPU 0 instructions: 860000003 cycles: 275423198 heartbeat IPC: 2.92736 cumulative IPC: 2.92783 (Simulation time: 0 hr 39 min 32 sec) 
Heartbeat CPU 0 instructions: 870000003 cycles: 278837468 heartbeat IPC: 2.92888 cumulative IPC: 2.92784 (Simulation time: 0 hr 39 min 59 sec) 
Heartbeat CPU 0 instructions: 880000003 cycles: 282253712 heartbeat IPC: 2.92719 cumulative IPC: 2.92783 (Simulation time: 0 hr 40 min 27 sec) 
Heartbeat CPU 0 instructions: 890000002 cycles: 285668169 heartbeat IPC: 2.92872 cumulative IPC: 2.92785 (Simulation time: 0 hr 40 min 55 sec) 
Heartbeat CPU 0 instructions: 900000001 cycles: 289084154 heartbeat IPC: 2.92741 cumulative IPC: 2.92784 (Simulation time: 0 hr 41 min 23 sec) 
Heartbeat CPU 0 instructions: 910000000 cycles: 292499082 heartbeat IPC: 2.92832 cumulative IPC: 2.92785 (Simulation time: 0 hr 41 min 51 sec) 
Heartbeat CPU 0 instructions: 920000004 cycles: 295914963 heartbeat IPC: 2.9275 cumulative IPC: 2.92784 (Simulation time: 0 hr 42 min 19 sec) 
Heartbeat CPU 0 instructions: 930000000 cycles: 299328650 heartbeat IPC: 2.92938 cumulative IPC: 2.92786 (Simulation time: 0 hr 42 min 47 sec) 
Heartbeat CPU 0 instructions: 940000004 cycles: 302744355 heartbeat IPC: 2.92765 cumulative IPC: 2.92786 (Simulation time: 0 hr 43 min 15 sec) 
Heartbeat CPU 0 instructions: 950000004 cycles: 306159013 heartbeat IPC: 2.92855 cumulative IPC: 2.92787 (Simulation time: 0 hr 43 min 43 sec) 
Heartbeat CPU 0 instructions: 960000003 cycles: 309574462 heartbeat IPC: 2.92787 cumulative IPC: 2.92787 (Simulation time: 0 hr 44 min 11 sec) 
Heartbeat CPU 0 instructions: 970000000 cycles: 312988491 heartbeat IPC: 2.92909 cumulative IPC: 2.92789 (Simulation time: 0 hr 44 min 39 sec) 
Heartbeat CPU 0 instructions: 980000004 cycles: 316404555 heartbeat IPC: 2.92735 cumulative IPC: 2.92788 (Simulation time: 0 hr 45 min 7 sec) 
Heartbeat CPU 0 instructions: 990000002 cycles: 319818337 heartbeat IPC: 2.9293 cumulative IPC: 2.9279 (Simulation time: 0 hr 45 min 35 sec) 
Heartbeat CPU 0 instructions: 1000000001 cycles: 323233577 heartbeat IPC: 2.92805 cumulative IPC: 2.9279 (Simulation time: 0 hr 46 min 3 sec) 
Heartbeat CPU 0 instructions: 1010000003 cycles: 326648146 heartbeat IPC: 2.92863 cumulative IPC: 2.92791 (Simulation time: 0 hr 46 min 31 sec) 
Heartbeat CPU 0 instructions: 1020000003 cycles: 330063881 heartbeat IPC: 2.92763 cumulative IPC: 2.9279 (Simulation time: 0 hr 46 min 59 sec) 
Heartbeat CPU 0 instructions: 1030000001 cycles: 333477711 heartbeat IPC: 2.92926 cumulative IPC: 2.92792 (Simulation time: 0 hr 47 min 27 sec) 
Heartbeat CPU 0 instructions: 1040000001 cycles: 336893023 heartbeat IPC: 2.92799 cumulative IPC: 2.92792 (Simulation time: 0 hr 47 min 55 sec) 
Heartbeat CPU 0 instructions: 1050000004 cycles: 340307228 heartbeat IPC: 2.92894 cumulative IPC: 2.92793 (Simulation time: 0 hr 48 min 23 sec) 
Heartbeat CPU 0 instructions: 1060000004 cycles: 343722485 heartbeat IPC: 2.92804 cumulative IPC: 2.92793 (Simulation time: 0 hr 48 min 51 sec) 
Heartbeat CPU 0 instructions: 1070000000 cycles: 347136945 heartbeat IPC: 2.92872 cumulative IPC: 2.92794 (Simulation time: 0 hr 49 min 19 sec) 
Heartbeat CPU 0 instructions: 1080000004 cycles: 350551944 heartbeat IPC: 2.92826 cumulative IPC: 2.92795 (Simulation time: 0 hr 49 min 47 sec) 
Heartbeat CPU 0 instructions: 1090000004 cycles: 353966640 heartbeat IPC: 2.92852 cumulative IPC: 2.92795 (Simulation time: 0 hr 50 min 15 sec) 
Heartbeat CPU 0 instructions: 1100000001 cycles: 357381188 heartbeat IPC: 2.92864 cumulative IPC: 2.92796 (Simulation time: 0 hr 50 min 43 sec) 
Heartbeat CPU 0 instructions: 1110000003 cycles: 360796526 heartbeat IPC: 2.92797 cumulative IPC: 2.92796 (Simulation time: 0 hr 51 min 11 sec) 
Heartbeat CPU 0 instructions: 1120000000 cycles: 364211624 heartbeat IPC: 2.92817 cumulative IPC: 2.92796 (Simulation time: 0 hr 51 min 39 sec) 
Heartbeat CPU 0 instructions: 1130000004 cycles: 367627012 heartbeat IPC: 2.92793 cumulative IPC: 2.92796 (Simulation time: 0 hr 52 min 6 sec) 
Heartbeat CPU 0 instructions: 1140000001 cycles: 371042410 heartbeat IPC: 2.92792 cumulative IPC: 2.92796 (Simulation time: 0 hr 52 min 34 sec) 
Heartbeat CPU 0 instructions: 1150000003 cycles: 374458397 heartbeat IPC: 2.92741 cumulative IPC: 2.92796 (Simulation time: 0 hr 53 min 2 sec) 
Heartbeat CPU 0 instructions: 1160000000 cycles: 377873155 heartbeat IPC: 2.92846 cumulative IPC: 2.92796 (Simulation time: 0 hr 53 min 30 sec) 
Heartbeat CPU 0 instructions: 1170000004 cycles: 381288618 heartbeat IPC: 2.92786 cumulative IPC: 2.92796 (Simulation time: 0 hr 53 min 58 sec) 
Heartbeat CPU 0 instructions: 1180000000 cycles: 384703316 heartbeat IPC: 2.92852 cumulative IPC: 2.92797 (Simulation time: 0 hr 54 min 26 sec) 
Heartbeat CPU 0 instructions: 1190000004 cycles: 388119990 heartbeat IPC: 2.92682 cumulative IPC: 2.92796 (Simulation time: 0 hr 54 min 54 sec) 
Heartbeat CPU 0 instructions: 1200000001 cycles: 391534174 heartbeat IPC: 2.92896 cumulative IPC: 2.92797 (Simulation time: 0 hr 55 min 22 sec) 
Finished CPU 0 instructions: 1000000004 cycles: 341534111 cumulative IPC: 2.92797 (Simulation time: 0 hr 55 min 22 sec) 

ChampSim completed all CPUs

Region of Interest Statistics

CPU 0 cumulative IPC: 2.92797 instructions: 1000000004 cycles: 341534111
cpu0_DTLB TOTAL     ACCESS:   83975478  HIT:   83511663  MISS:     463815
cpu0_DTLB LOAD      ACCESS:   83952794  HIT:   83494557  MISS:     458237
cpu0_DTLB RFO       ACCESS:      22684  HIT:      17106  MISS:       5578
cpu0_DTLB PREFETCH  ACCESS:          0  HIT:          0  MISS:          0
cpu0_DTLB WRITEBACK ACCESS:          0  HIT:          0  MISS:          0
cpu0_DTLB TRANSLATION ACCESS:          0  HIT:          0  MISS:          0
cpu0_DTLB PREFETCH  REQUESTED:          0  ISSUED:          0  USEFUL:          0  USELESS:          0
cpu0_DTLB AVERAGE MISS LATENCY: 11.3007 cycles
cpu0_ITLB TOTAL     ACCESS:   28263623  HIT:   28263623  MISS:          0
cpu0_ITLB LOAD      ACCESS:   28263623  HIT:   28263623  MISS:          0
cpu0_ITLB RFO       ACCESS:          0  HIT:          0  MISS:          0
cpu0_ITLB PREFETCH  ACCESS:          0  HIT:          0  MISS:          0
cpu0_ITLB WRITEBACK ACCESS:          0  HIT:          0  MISS:          0
cpu0_ITLB TRANSLATION ACCESS:          0  HIT:          0  MISS:          0
cpu0_ITLB PREFETCH  REQUESTED:          0  ISSUED:          0  USEFUL:          0  USELESS:          0
cpu0_ITLB AVERAGE MISS LATENCY: -nan cycles
cpu0_STLB TOTAL     ACCESS:     463815  HIT:     463204  MISS:        611
cpu0_STLB LOAD      ACCESS:     458237  HIT:     457632  MISS:        605
cpu0_STLB RFO       ACCESS:       5578  HIT:       5572  MISS:          6
cpu0_STLB PREFETCH  ACCESS:          0  HIT:          0  MISS:          0
cpu0_STLB WRITEBACK ACCESS:          0  HIT:          0  MISS:          0
cpu0_STLB TRANSLATION ACCESS:          0  HIT:          0  MISS:          0
cpu0_STLB PREFETCH  REQUESTED:          0  ISSUED:          0  USEFUL:          0  USELESS:          0
cpu0_STLB AVERAGE MISS LATENCY: 219.206 cycles
cpu0_L1D TOTAL     ACCESS:   35750799  HIT:   26850519  MISS:    8900280
cpu0_L1D LOAD      ACCESS:   35705694  HIT:   26811954  MISS:    8893740
cpu0_L1D RFO       ACCESS:      44494  HIT:      38565  MISS:       5929
cpu0_L1D PREFETCH  ACCESS:          0  HIT:          0  MISS:          0
cpu0_L1D WRITEBACK ACCESS:          0  HIT:          0  MISS:          0
cpu0_L1D TRANSLATION ACCESS:        611  HIT:          0  MISS:        611
cpu0_L1D PREFETCH  REQUESTED:          0  ISSUED:          0  USEFUL:          0  USELESS:          0
cpu0_L1D AVERAGE MISS LATENCY: 11.0949 cycles
cpu0_L2C TOTAL     ACCESS:   44329167  HIT:   44173138  MISS:     156029
cpu0_L2C LOAD      ACCESS:    8893740  HIT:    8882698  MISS:      11042
cpu0_L2C RFO       ACCESS:       5929  HIT:       5580  MISS:        349
cpu0_L2C PREFETCH  ACCESS:   35414593  HIT:   35269961  MISS:     144632
cpu0_L2C WRITEBACK ACCESS:      14294  HIT:      14294  MISS:          0
cpu0_L2C TRANSLATION ACCESS:        611  HIT:        605  MISS:          6
cpu0_L2C PREFETCH  REQUESTED:   37931410  ISSUED:   37700414  USEFUL:     132549  USELESS:      14194
cpu0_L2C AVERAGE MISS LATENCY: 23.5907 cycles
LLC TOTAL     ACCESS:    2435492  HIT:    2396284  MISS:      39208
LLC LOAD      ACCESS:       8969  HIT:       8045  MISS:        924
LLC RFO       ACCESS:        349  HIT:          0  MISS:        349
LLC PREFETCH  ACCESS:    2425756  HIT:    2387821  MISS:      37935
LLC WRITEBACK ACCESS:        412  HIT:        412  MISS:          0
LLC TRANSLATION ACCESS:          6  HIT:          6  MISS:          0
LLC PREFETCH  REQUESTED:          0  ISSUED:          0  USEFUL:          0  USELESS:          0
LLC AVERAGE MISS LATENCY: 164.372 cycles
Printing the final status 

DRAM Statistics
 CHANNEL 0
 RQ ROW_BUFFER_HIT:         10  ROW_BUFFER_MISS:      39198
 DBUS AVG_CONGESTED_CYCLE:    3.94607
 WQ ROW_BUFFER_HIT:          0  ROW_BUFFER_MISS:        128  FULL:          0


CPU 0 Branch Prediction Accuracy: 99.396% MPKI: 0.625173 Average ROB Occupancy at Mispredict: 187.805
Branch type MPKI
BRANCH_DIRECT_JUMP: 1e-06
BRANCH_INDIRECT: 0
BRANCH_CONDITIONAL: 0.625172
BRANCH_DIRECT_CALL: 0
BRANCH_INDIRECT_CALL: 0
BRANCH_RETURN: 0

***************** Done with 638.imagick_s-10316B.champsimtrace.xz using ppf-spp-dev, on Sun Apr 17 23:59:41 CDT 2022 ******************
