Started running file 641.leela_s-800B.champsimtrace.xz at time Wed Apr 20 13:59:13 CDT 2022 with prefetcher ppf-spp-dev-3

*** ChampSim Multicore Out-of-Order Simulator ***

Warmup Instructions: 200000000
Simulation Instructions: 1000000000
Number of CPUs: 1
Off-chip DRAM Size: 4 GiB Channels: 1 Width: 64-bit Data Rate: 3200 MT/s

VirtualMemory physical capacity: 8588881920 num_ppages: 2096895
VirtualMemory page size: 4096 log2_page_size: 12

CPU 0 runs /home/faculty/p/pgratz/dpc3_traces/641.leela_s-800B.champsimtrace.xz
CPU 0 Bimodal branch predictor
Basic BTB sets: 1024 ways: 8 indirect buffer size: 4096 RAS size: 64
cpu0_L2C PPF SPP DEV Prefetcher
Heartbeat CPU 0 instructions: 10000002 cycles: 2508745 heartbeat IPC: 3.98606 cumulative IPC: 3.98606 (Simulation time: 0 hr 0 min 33 sec) 
Heartbeat CPU 0 instructions: 20000003 cycles: 5017391 heartbeat IPC: 3.98621 cumulative IPC: 3.98614 (Simulation time: 0 hr 1 min 5 sec) 
Heartbeat CPU 0 instructions: 30000002 cycles: 7524823 heartbeat IPC: 3.98814 cumulative IPC: 3.9868 (Simulation time: 0 hr 1 min 37 sec) 
Heartbeat CPU 0 instructions: 40000002 cycles: 10033462 heartbeat IPC: 3.98623 cumulative IPC: 3.98666 (Simulation time: 0 hr 2 min 10 sec) 
Heartbeat CPU 0 instructions: 50000002 cycles: 12541436 heartbeat IPC: 3.98728 cumulative IPC: 3.98678 (Simulation time: 0 hr 2 min 42 sec) 
Heartbeat CPU 0 instructions: 60000001 cycles: 15049504 heartbeat IPC: 3.98713 cumulative IPC: 3.98684 (Simulation time: 0 hr 3 min 14 sec) 
Heartbeat CPU 0 instructions: 70000000 cycles: 17558143 heartbeat IPC: 3.98622 cumulative IPC: 3.98675 (Simulation time: 0 hr 3 min 47 sec) 
Heartbeat CPU 0 instructions: 80000000 cycles: 20066186 heartbeat IPC: 3.98717 cumulative IPC: 3.98681 (Simulation time: 0 hr 4 min 19 sec) 
Heartbeat CPU 0 instructions: 90000003 cycles: 22574203 heartbeat IPC: 3.98722 cumulative IPC: 3.98685 (Simulation time: 0 hr 4 min 51 sec) 
Heartbeat CPU 0 instructions: 100000002 cycles: 25082188 heartbeat IPC: 3.98726 cumulative IPC: 3.98689 (Simulation time: 0 hr 5 min 24 sec) 
Heartbeat CPU 0 instructions: 110000001 cycles: 27589694 heartbeat IPC: 3.98803 cumulative IPC: 3.987 (Simulation time: 0 hr 5 min 56 sec) 
Heartbeat CPU 0 instructions: 120000002 cycles: 30260185 heartbeat IPC: 3.74463 cumulative IPC: 3.96561 (Simulation time: 0 hr 6 min 32 sec) 
Heartbeat CPU 0 instructions: 130000001 cycles: 32767507 heartbeat IPC: 3.98832 cumulative IPC: 3.96734 (Simulation time: 0 hr 7 min 4 sec) 
Heartbeat CPU 0 instructions: 140000000 cycles: 35275480 heartbeat IPC: 3.98728 cumulative IPC: 3.96876 (Simulation time: 0 hr 7 min 37 sec) 
Heartbeat CPU 0 instructions: 150000002 cycles: 37783454 heartbeat IPC: 3.98728 cumulative IPC: 3.96999 (Simulation time: 0 hr 8 min 9 sec) 
Heartbeat CPU 0 instructions: 160000001 cycles: 40291535 heartbeat IPC: 3.98711 cumulative IPC: 3.97106 (Simulation time: 0 hr 8 min 42 sec) 
Heartbeat CPU 0 instructions: 170000002 cycles: 42799824 heartbeat IPC: 3.98678 cumulative IPC: 3.97198 (Simulation time: 0 hr 9 min 14 sec) 
Heartbeat CPU 0 instructions: 180000000 cycles: 45308509 heartbeat IPC: 3.98615 cumulative IPC: 3.97276 (Simulation time: 0 hr 9 min 47 sec) 
Heartbeat CPU 0 instructions: 190000002 cycles: 47815866 heartbeat IPC: 3.98826 cumulative IPC: 3.97358 (Simulation time: 0 hr 10 min 19 sec) 
Heartbeat CPU 0 instructions: 200000002 cycles: 50323871 heartbeat IPC: 3.98723 cumulative IPC: 3.97426 (Simulation time: 0 hr 10 min 52 sec) 

Warmup complete CPU 0 instructions: 200000002 cycles: 50323871 (Simulation time: 0 hr 10 min 52 sec) 

Heartbeat CPU 0 instructions: 210000003 cycles: 60585529 heartbeat IPC: 0.974501 cumulative IPC: 0.974501 (Simulation time: 0 hr 11 min 26 sec) 
Heartbeat CPU 0 instructions: 220000000 cycles: 70914022 heartbeat IPC: 0.968195 cumulative IPC: 0.971338 (Simulation time: 0 hr 12 min 0 sec) 
Heartbeat CPU 0 instructions: 230000003 cycles: 81211137 heartbeat IPC: 0.971146 cumulative IPC: 0.971274 (Simulation time: 0 hr 12 min 34 sec) 
Heartbeat CPU 0 instructions: 240000001 cycles: 91538267 heartbeat IPC: 0.968323 cumulative IPC: 0.970535 (Simulation time: 0 hr 13 min 8 sec) 
Heartbeat CPU 0 instructions: 250000001 cycles: 101878155 heartbeat IPC: 0.967128 cumulative IPC: 0.969851 (Simulation time: 0 hr 13 min 42 sec) 
Heartbeat CPU 0 instructions: 260000003 cycles: 112149058 heartbeat IPC: 0.973624 cumulative IPC: 0.970478 (Simulation time: 0 hr 14 min 16 sec) 
Heartbeat CPU 0 instructions: 270000003 cycles: 122449328 heartbeat IPC: 0.970848 cumulative IPC: 0.970531 (Simulation time: 0 hr 14 min 51 sec) 
Heartbeat CPU 0 instructions: 280000002 cycles: 132672711 heartbeat IPC: 0.97815 cumulative IPC: 0.971477 (Simulation time: 0 hr 15 min 25 sec) 
Heartbeat CPU 0 instructions: 290000002 cycles: 142890012 heartbeat IPC: 0.978732 cumulative IPC: 0.972278 (Simulation time: 0 hr 15 min 59 sec) 
Heartbeat CPU 0 instructions: 300000001 cycles: 153203879 heartbeat IPC: 0.969568 cumulative IPC: 0.972006 (Simulation time: 0 hr 16 min 33 sec) 
Heartbeat CPU 0 instructions: 310000001 cycles: 163462387 heartbeat IPC: 0.974801 cumulative IPC: 0.97226 (Simulation time: 0 hr 17 min 7 sec) 
Heartbeat CPU 0 instructions: 320000000 cycles: 173747133 heartbeat IPC: 0.972314 cumulative IPC: 0.972264 (Simulation time: 0 hr 17 min 41 sec) 
Heartbeat CPU 0 instructions: 330000000 cycles: 183980675 heartbeat IPC: 0.977179 cumulative IPC: 0.97264 (Simulation time: 0 hr 18 min 16 sec) 
Heartbeat CPU 0 instructions: 340000001 cycles: 194272848 heartbeat IPC: 0.971612 cumulative IPC: 0.972567 (Simulation time: 0 hr 18 min 50 sec) 
Heartbeat CPU 0 instructions: 350000003 cycles: 204581452 heartbeat IPC: 0.970064 cumulative IPC: 0.9724 (Simulation time: 0 hr 19 min 24 sec) 
Heartbeat CPU 0 instructions: 360000000 cycles: 214884439 heartbeat IPC: 0.970592 cumulative IPC: 0.972286 (Simulation time: 0 hr 19 min 58 sec) 
Heartbeat CPU 0 instructions: 370000002 cycles: 225083332 heartbeat IPC: 0.980499 cumulative IPC: 0.972766 (Simulation time: 0 hr 20 min 33 sec) 
Heartbeat CPU 0 instructions: 380000002 cycles: 235453229 heartbeat IPC: 0.96433 cumulative IPC: 0.972293 (Simulation time: 0 hr 21 min 7 sec) 
Heartbeat CPU 0 instructions: 390000000 cycles: 245769391 heartbeat IPC: 0.969353 cumulative IPC: 0.972138 (Simulation time: 0 hr 21 min 41 sec) 
Heartbeat CPU 0 instructions: 400000003 cycles: 256027659 heartbeat IPC: 0.974824 cumulative IPC: 0.972272 (Simulation time: 0 hr 22 min 15 sec) 
Heartbeat CPU 0 instructions: 410000002 cycles: 266287583 heartbeat IPC: 0.974666 cumulative IPC: 0.972386 (Simulation time: 0 hr 22 min 50 sec) 
Heartbeat CPU 0 instructions: 420000000 cycles: 276662298 heartbeat IPC: 0.963882 cumulative IPC: 0.971996 (Simulation time: 0 hr 23 min 24 sec) 
Heartbeat CPU 0 instructions: 430000000 cycles: 287055709 heartbeat IPC: 0.962148 cumulative IPC: 0.971563 (Simulation time: 0 hr 23 min 58 sec) 
Heartbeat CPU 0 instructions: 440000004 cycles: 297292282 heartbeat IPC: 0.97689 cumulative IPC: 0.971784 (Simulation time: 0 hr 24 min 32 sec) 
Heartbeat CPU 0 instructions: 450000003 cycles: 307598581 heartbeat IPC: 0.97028 cumulative IPC: 0.971724 (Simulation time: 0 hr 25 min 6 sec) 
Heartbeat CPU 0 instructions: 460000001 cycles: 317899768 heartbeat IPC: 0.970762 cumulative IPC: 0.971687 (Simulation time: 0 hr 25 min 41 sec) 
Heartbeat CPU 0 instructions: 470000002 cycles: 328301057 heartbeat IPC: 0.961419 cumulative IPC: 0.971303 (Simulation time: 0 hr 26 min 15 sec) 
Heartbeat CPU 0 instructions: 480000000 cycles: 338634628 heartbeat IPC: 0.967719 cumulative IPC: 0.971174 (Simulation time: 0 hr 26 min 49 sec) 
Heartbeat CPU 0 instructions: 490000000 cycles: 348839151 heartbeat IPC: 0.979958 cumulative IPC: 0.971475 (Simulation time: 0 hr 27 min 23 sec) 
Heartbeat CPU 0 instructions: 500000002 cycles: 359048767 heartbeat IPC: 0.979469 cumulative IPC: 0.971739 (Simulation time: 0 hr 27 min 57 sec) 
Heartbeat CPU 0 instructions: 510000004 cycles: 369366077 heartbeat IPC: 0.969245 cumulative IPC: 0.971658 (Simulation time: 0 hr 28 min 31 sec) 
Heartbeat CPU 0 instructions: 520000000 cycles: 379760459 heartbeat IPC: 0.962058 cumulative IPC: 0.971355 (Simulation time: 0 hr 29 min 6 sec) 
Heartbeat CPU 0 instructions: 530000002 cycles: 390106917 heartbeat IPC: 0.966515 cumulative IPC: 0.971208 (Simulation time: 0 hr 29 min 40 sec) 
Heartbeat CPU 0 instructions: 540000001 cycles: 400424575 heartbeat IPC: 0.969212 cumulative IPC: 0.971149 (Simulation time: 0 hr 30 min 14 sec) 
Heartbeat CPU 0 instructions: 550000001 cycles: 410703855 heartbeat IPC: 0.972831 cumulative IPC: 0.971197 (Simulation time: 0 hr 30 min 48 sec) 
Heartbeat CPU 0 instructions: 560000002 cycles: 421023910 heartbeat IPC: 0.968987 cumulative IPC: 0.971136 (Simulation time: 0 hr 31 min 22 sec) 
Heartbeat CPU 0 instructions: 570000004 cycles: 431330953 heartbeat IPC: 0.970211 cumulative IPC: 0.971111 (Simulation time: 0 hr 31 min 57 sec) 
Heartbeat CPU 0 instructions: 580000003 cycles: 441549257 heartbeat IPC: 0.978636 cumulative IPC: 0.971307 (Simulation time: 0 hr 32 min 31 sec) 
Heartbeat CPU 0 instructions: 590000001 cycles: 451791936 heartbeat IPC: 0.976307 cumulative IPC: 0.971435 (Simulation time: 0 hr 33 min 5 sec) 
Heartbeat CPU 0 instructions: 600000002 cycles: 462019497 heartbeat IPC: 0.97775 cumulative IPC: 0.971592 (Simulation time: 0 hr 33 min 39 sec) 
Heartbeat CPU 0 instructions: 610000002 cycles: 472328989 heartbeat IPC: 0.96998 cumulative IPC: 0.971552 (Simulation time: 0 hr 34 min 13 sec) 
Heartbeat CPU 0 instructions: 620000004 cycles: 482665487 heartbeat IPC: 0.967446 cumulative IPC: 0.971454 (Simulation time: 0 hr 34 min 47 sec) 
Heartbeat CPU 0 instructions: 630000003 cycles: 493012369 heartbeat IPC: 0.966475 cumulative IPC: 0.971338 (Simulation time: 0 hr 35 min 21 sec) 
Heartbeat CPU 0 instructions: 640000002 cycles: 503396764 heartbeat IPC: 0.962983 cumulative IPC: 0.971146 (Simulation time: 0 hr 35 min 55 sec) 
Heartbeat CPU 0 instructions: 650000000 cycles: 513723702 heartbeat IPC: 0.968341 cumulative IPC: 0.971084 (Simulation time: 0 hr 36 min 29 sec) 
Heartbeat CPU 0 instructions: 660000002 cycles: 523999554 heartbeat IPC: 0.973155 cumulative IPC: 0.971129 (Simulation time: 0 hr 37 min 3 sec) 
Heartbeat CPU 0 instructions: 670000000 cycles: 534310413 heartbeat IPC: 0.969851 cumulative IPC: 0.971101 (Simulation time: 0 hr 37 min 38 sec) 
Heartbeat CPU 0 instructions: 680000004 cycles: 544654879 heartbeat IPC: 0.966701 cumulative IPC: 0.971009 (Simulation time: 0 hr 38 min 12 sec) 
Heartbeat CPU 0 instructions: 690000001 cycles: 554937511 heartbeat IPC: 0.972513 cumulative IPC: 0.97104 (Simulation time: 0 hr 38 min 46 sec) 
Heartbeat CPU 0 instructions: 700000001 cycles: 565243885 heartbeat IPC: 0.970273 cumulative IPC: 0.971025 (Simulation time: 0 hr 39 min 20 sec) 
Heartbeat CPU 0 instructions: 710000002 cycles: 575491239 heartbeat IPC: 0.975862 cumulative IPC: 0.971119 (Simulation time: 0 hr 39 min 54 sec) 
Heartbeat CPU 0 instructions: 720000000 cycles: 585862499 heartbeat IPC: 0.964203 cumulative IPC: 0.970985 (Simulation time: 0 hr 40 min 28 sec) 
Heartbeat CPU 0 instructions: 730000000 cycles: 596199989 heartbeat IPC: 0.967353 cumulative IPC: 0.970916 (Simulation time: 0 hr 41 min 2 sec) 
Heartbeat CPU 0 instructions: 740000001 cycles: 606528978 heartbeat IPC: 0.968149 cumulative IPC: 0.970865 (Simulation time: 0 hr 41 min 36 sec) 
Heartbeat CPU 0 instructions: 750000000 cycles: 616876468 heartbeat IPC: 0.966418 cumulative IPC: 0.970784 (Simulation time: 0 hr 42 min 10 sec) 
Heartbeat CPU 0 instructions: 760000002 cycles: 627197825 heartbeat IPC: 0.968865 cumulative IPC: 0.970749 (Simulation time: 0 hr 42 min 44 sec) 
Heartbeat CPU 0 instructions: 770000000 cycles: 637457943 heartbeat IPC: 0.974647 cumulative IPC: 0.970817 (Simulation time: 0 hr 43 min 18 sec) 
Heartbeat CPU 0 instructions: 780000002 cycles: 647839362 heartbeat IPC: 0.96326 cumulative IPC: 0.970686 (Simulation time: 0 hr 43 min 53 sec) 
Heartbeat CPU 0 instructions: 790000000 cycles: 658074403 heartbeat IPC: 0.977035 cumulative IPC: 0.970793 (Simulation time: 0 hr 44 min 27 sec) 
Heartbeat CPU 0 instructions: 800000004 cycles: 668396971 heartbeat IPC: 0.968752 cumulative IPC: 0.970759 (Simulation time: 0 hr 45 min 1 sec) 
Heartbeat CPU 0 instructions: 810000000 cycles: 678656760 heartbeat IPC: 0.974679 cumulative IPC: 0.970823 (Simulation time: 0 hr 45 min 35 sec) 
Heartbeat CPU 0 instructions: 820000000 cycles: 688988318 heartbeat IPC: 0.967908 cumulative IPC: 0.970776 (Simulation time: 0 hr 46 min 9 sec) 
Heartbeat CPU 0 instructions: 830000003 cycles: 699282844 heartbeat IPC: 0.97139 cumulative IPC: 0.970786 (Simulation time: 0 hr 46 min 43 sec) 
Heartbeat CPU 0 instructions: 840000002 cycles: 709509061 heartbeat IPC: 0.977879 cumulative IPC: 0.970896 (Simulation time: 0 hr 47 min 17 sec) 
Heartbeat CPU 0 instructions: 850000004 cycles: 719819921 heartbeat IPC: 0.969851 cumulative IPC: 0.970879 (Simulation time: 0 hr 47 min 51 sec) 
Heartbeat CPU 0 instructions: 860000003 cycles: 730079482 heartbeat IPC: 0.9747 cumulative IPC: 0.970937 (Simulation time: 0 hr 48 min 26 sec) 
Heartbeat CPU 0 instructions: 870000004 cycles: 740406452 heartbeat IPC: 0.968338 cumulative IPC: 0.970898 (Simulation time: 0 hr 49 min 0 sec) 
Heartbeat CPU 0 instructions: 880000002 cycles: 750748416 heartbeat IPC: 0.966934 cumulative IPC: 0.97084 (Simulation time: 0 hr 49 min 34 sec) 
Heartbeat CPU 0 instructions: 890000003 cycles: 760942898 heartbeat IPC: 0.980923 cumulative IPC: 0.970984 (Simulation time: 0 hr 50 min 8 sec) 
Heartbeat CPU 0 instructions: 900000000 cycles: 771149017 heartbeat IPC: 0.979804 cumulative IPC: 0.971109 (Simulation time: 0 hr 50 min 42 sec) 
Heartbeat CPU 0 instructions: 910000001 cycles: 781311755 heartbeat IPC: 0.983987 cumulative IPC: 0.971288 (Simulation time: 0 hr 51 min 16 sec) 
Heartbeat CPU 0 instructions: 920000002 cycles: 791581474 heartbeat IPC: 0.973737 cumulative IPC: 0.971322 (Simulation time: 0 hr 51 min 51 sec) 
Heartbeat CPU 0 instructions: 930000002 cycles: 801910590 heartbeat IPC: 0.968137 cumulative IPC: 0.971278 (Simulation time: 0 hr 52 min 25 sec) 
Heartbeat CPU 0 instructions: 940000001 cycles: 812085759 heartbeat IPC: 0.982785 cumulative IPC: 0.971432 (Simulation time: 0 hr 52 min 59 sec) 
Heartbeat CPU 0 instructions: 950000000 cycles: 822353325 heartbeat IPC: 0.973941 cumulative IPC: 0.971466 (Simulation time: 0 hr 53 min 33 sec) 
Heartbeat CPU 0 instructions: 960000001 cycles: 836235780 heartbeat IPC: 0.720334 cumulative IPC: 0.96703 (Simulation time: 0 hr 54 min 20 sec) 
Heartbeat CPU 0 instructions: 970000003 cycles: 846502322 heartbeat IPC: 0.974038 cumulative IPC: 0.96712 (Simulation time: 0 hr 54 min 55 sec) 
Heartbeat CPU 0 instructions: 980000001 cycles: 856655417 heartbeat IPC: 0.984921 cumulative IPC: 0.967344 (Simulation time: 0 hr 55 min 29 sec) 
Heartbeat CPU 0 instructions: 990000001 cycles: 866888210 heartbeat IPC: 0.97725 cumulative IPC: 0.967468 (Simulation time: 0 hr 56 min 3 sec) 
Heartbeat CPU 0 instructions: 1000000001 cycles: 877213427 heartbeat IPC: 0.968503 cumulative IPC: 0.967481 (Simulation time: 0 hr 56 min 38 sec) 
Heartbeat CPU 0 instructions: 1010000001 cycles: 887455578 heartbeat IPC: 0.976357 cumulative IPC: 0.96759 (Simulation time: 0 hr 57 min 12 sec) 
Heartbeat CPU 0 instructions: 1020000001 cycles: 897634951 heartbeat IPC: 0.982379 cumulative IPC: 0.967767 (Simulation time: 0 hr 57 min 46 sec) 
Heartbeat CPU 0 instructions: 1030000001 cycles: 907841321 heartbeat IPC: 0.97978 cumulative IPC: 0.96791 (Simulation time: 0 hr 58 min 20 sec) 
Heartbeat CPU 0 instructions: 1040000004 cycles: 918035397 heartbeat IPC: 0.980962 cumulative IPC: 0.968064 (Simulation time: 0 hr 58 min 54 sec) 
Heartbeat CPU 0 instructions: 1050000003 cycles: 928322154 heartbeat IPC: 0.972124 cumulative IPC: 0.968111 (Simulation time: 0 hr 59 min 28 sec) 
Heartbeat CPU 0 instructions: 1060000000 cycles: 938544579 heartbeat IPC: 0.978241 cumulative IPC: 0.968228 (Simulation time: 1 hr 0 min 3 sec) 
Heartbeat CPU 0 instructions: 1070000003 cycles: 948718282 heartbeat IPC: 0.982927 cumulative IPC: 0.968394 (Simulation time: 1 hr 0 min 37 sec) 
Heartbeat CPU 0 instructions: 1080000003 cycles: 958991660 heartbeat IPC: 0.97339 cumulative IPC: 0.968451 (Simulation time: 1 hr 1 min 11 sec) 
Heartbeat CPU 0 instructions: 1090000000 cycles: 969274024 heartbeat IPC: 0.972539 cumulative IPC: 0.968497 (Simulation time: 1 hr 1 min 45 sec) 
Heartbeat CPU 0 instructions: 1100000001 cycles: 979434849 heartbeat IPC: 0.984172 cumulative IPC: 0.968668 (Simulation time: 1 hr 2 min 19 sec) 
Heartbeat CPU 0 instructions: 1110000000 cycles: 989787521 heartbeat IPC: 0.965934 cumulative IPC: 0.968638 (Simulation time: 1 hr 2 min 53 sec) 
Heartbeat CPU 0 instructions: 1120000001 cycles: 1000054884 heartbeat IPC: 0.97396 cumulative IPC: 0.968695 (Simulation time: 1 hr 3 min 27 sec) 
Heartbeat CPU 0 instructions: 1130000000 cycles: 1010366382 heartbeat IPC: 0.969791 cumulative IPC: 0.968707 (Simulation time: 1 hr 4 min 2 sec) 
Heartbeat CPU 0 instructions: 1140000001 cycles: 1020528413 heartbeat IPC: 0.984055 cumulative IPC: 0.968868 (Simulation time: 1 hr 4 min 36 sec) 
Heartbeat CPU 0 instructions: 1150000002 cycles: 1030721627 heartbeat IPC: 0.981045 cumulative IPC: 0.968994 (Simulation time: 1 hr 5 min 10 sec) 
Heartbeat CPU 0 instructions: 1160000001 cycles: 1041077653 heartbeat IPC: 0.965621 cumulative IPC: 0.968959 (Simulation time: 1 hr 5 min 44 sec) 
Heartbeat CPU 0 instructions: 1170000000 cycles: 1051309849 heartbeat IPC: 0.977307 cumulative IPC: 0.969045 (Simulation time: 1 hr 6 min 18 sec) 
Heartbeat CPU 0 instructions: 1180000001 cycles: 1061495700 heartbeat IPC: 0.981754 cumulative IPC: 0.969173 (Simulation time: 1 hr 6 min 53 sec) 
Heartbeat CPU 0 instructions: 1190000002 cycles: 1071794755 heartbeat IPC: 0.970963 cumulative IPC: 0.969191 (Simulation time: 1 hr 7 min 27 sec) 
Heartbeat CPU 0 instructions: 1200000003 cycles: 1082047533 heartbeat IPC: 0.975345 cumulative IPC: 0.969252 (Simulation time: 1 hr 8 min 1 sec) 
Finished CPU 0 instructions: 1000000001 cycles: 1031723662 cumulative IPC: 0.969252 (Simulation time: 1 hr 8 min 1 sec) 

ChampSim completed all CPUs

Region of Interest Statistics

CPU 0 cumulative IPC: 0.969252 instructions: 1000000001 cycles: 1031723662
cpu0_DTLB TOTAL     ACCESS:  192401022  HIT:  191999191  MISS:     401831
cpu0_DTLB LOAD      ACCESS:  133284115  HIT:  132894885  MISS:     389230
cpu0_DTLB RFO       ACCESS:   59116907  HIT:   59104306  MISS:      12601
cpu0_DTLB PREFETCH  ACCESS:          0  HIT:          0  MISS:          0
cpu0_DTLB WRITEBACK ACCESS:          0  HIT:          0  MISS:          0
cpu0_DTLB TRANSLATION ACCESS:          0  HIT:          0  MISS:          0
cpu0_DTLB PREFETCH  REQUESTED:          0  ISSUED:          0  USEFUL:          0  USELESS:          0
cpu0_DTLB AVERAGE MISS LATENCY: 11.1963 cycles
cpu0_ITLB TOTAL     ACCESS:  105601667  HIT:  105601636  MISS:         31
cpu0_ITLB LOAD      ACCESS:  105601667  HIT:  105601636  MISS:         31
cpu0_ITLB RFO       ACCESS:          0  HIT:          0  MISS:          0
cpu0_ITLB PREFETCH  ACCESS:          0  HIT:          0  MISS:          0
cpu0_ITLB WRITEBACK ACCESS:          0  HIT:          0  MISS:          0
cpu0_ITLB TRANSLATION ACCESS:          0  HIT:          0  MISS:          0
cpu0_ITLB PREFETCH  REQUESTED:          0  ISSUED:          0  USEFUL:          0  USELESS:          0
cpu0_ITLB AVERAGE MISS LATENCY: 11 cycles
cpu0_L1I TOTAL     ACCESS:   95733997  HIT:   95713027  MISS:      20970
cpu0_L1I LOAD      ACCESS:   95733997  HIT:   95713027  MISS:      20970
cpu0_L1I RFO       ACCESS:          0  HIT:          0  MISS:          0
cpu0_L1I PREFETCH  ACCESS:          0  HIT:          0  MISS:          0
cpu0_L1I WRITEBACK ACCESS:          0  HIT:          0  MISS:          0
cpu0_L1I TRANSLATION ACCESS:          0  HIT:          0  MISS:          0
cpu0_L1I PREFETCH  REQUESTED:          0  ISSUED:          0  USEFUL:          0  USELESS:          0
cpu0_L1I AVERAGE MISS LATENCY: 21.1759 cycles
cpu0_STLB TOTAL     ACCESS:     401862  HIT:     401503  MISS:        359
cpu0_STLB LOAD      ACCESS:     389261  HIT:     388931  MISS:        330
cpu0_STLB RFO       ACCESS:      12601  HIT:      12572  MISS:         29
cpu0_STLB PREFETCH  ACCESS:          0  HIT:          0  MISS:          0
cpu0_STLB WRITEBACK ACCESS:          0  HIT:          0  MISS:          0
cpu0_STLB TRANSLATION ACCESS:          0  HIT:          0  MISS:          0
cpu0_STLB PREFETCH  REQUESTED:          0  ISSUED:          0  USEFUL:          0  USELESS:          0
cpu0_STLB AVERAGE MISS LATENCY: 219.507 cycles
cpu0_L1D TOTAL     ACCESS:  271349722  HIT:  269085402  MISS:    2264320
cpu0_L1D LOAD      ACCESS:  157859512  HIT:  155836391  MISS:    2023121
cpu0_L1D RFO       ACCESS:  113489852  HIT:  113249006  MISS:     240846
cpu0_L1D PREFETCH  ACCESS:          0  HIT:          0  MISS:          0
cpu0_L1D WRITEBACK ACCESS:          0  HIT:          0  MISS:          0
cpu0_L1D TRANSLATION ACCESS:        358  HIT:          5  MISS:        353
cpu0_L1D PREFETCH  REQUESTED:          0  ISSUED:          0  USEFUL:          0  USELESS:          0
cpu0_L1D AVERAGE MISS LATENCY: 22.3482 cycles
cpu0_L2C TOTAL     ACCESS:    5054874  HIT:    4920196  MISS:     134678
cpu0_L2C LOAD      ACCESS:    2044085  HIT:    2016801  MISS:      27284
cpu0_L2C RFO       ACCESS:     240843  HIT:     204223  MISS:      36620
cpu0_L2C PREFETCH  ACCESS:    2346418  HIT:    2275672  MISS:      70746
cpu0_L2C WRITEBACK ACCESS:     423175  HIT:     423151  MISS:         24
cpu0_L2C TRANSLATION ACCESS:        353  HIT:        349  MISS:          4
cpu0_L2C PREFETCH  REQUESTED:    2512897  ISSUED:    2440758  USEFUL:      56746  USELESS:      19690
cpu0_L2C AVERAGE MISS LATENCY: 279.599 cycles
LLC TOTAL     ACCESS:     231175  HIT:     153024  MISS:      78151
LLC LOAD      ACCESS:      21835  HIT:      16233  MISS:       5602
LLC RFO       ACCESS:      36611  HIT:       5087  MISS:      31524
LLC PREFETCH  ACCESS:     131129  HIT:      90220  MISS:      40909
LLC WRITEBACK ACCESS:      41596  HIT:      41482  MISS:        114
LLC TRANSLATION ACCESS:          4  HIT:          2  MISS:          2
LLC PREFETCH  REQUESTED:          0  ISSUED:          0  USEFUL:          0  USELESS:          0
LLC AVERAGE MISS LATENCY: 592.635 cycles
Printing the final status 

DRAM Statistics
 CHANNEL 0
 RQ ROW_BUFFER_HIT:       8200  ROW_BUFFER_MISS:      69770
 DBUS AVG_CONGESTED_CYCLE:    3.96389
 WQ ROW_BUFFER_HIT:       1599  ROW_BUFFER_MISS:      35000  FULL:          0


CPU 0 Branch Prediction Accuracy: 85.2323% MPKI: 24.1499 Average ROB Occupancy at Mispredict: 16.0877
Branch type MPKI
BRANCH_DIRECT_JUMP: 9e-06
BRANCH_INDIRECT: 0.000567
BRANCH_CONDITIONAL: 24.1493
BRANCH_DIRECT_CALL: 3e-06
BRANCH_INDIRECT_CALL: 8e-06
BRANCH_RETURN: 1.1e-05

***************** Done with 641.leela_s-800B.champsimtrace.xz using ppf-spp-dev-3, on Wed Apr 20 15:07:14 CDT 2022 ******************
