Started running file 602.gcc_s-734B.champsimtrace.xz at time Wed Apr 20 11:42:08 CDT 2022 with prefetcher ppf-spp-dev-3

*** ChampSim Multicore Out-of-Order Simulator ***

Warmup Instructions: 200000000
Simulation Instructions: 1000000000
Number of CPUs: 1
Off-chip DRAM Size: 4 GiB Channels: 1 Width: 64-bit Data Rate: 3200 MT/s

VirtualMemory physical capacity: 8588881920 num_ppages: 2096895
VirtualMemory page size: 4096 log2_page_size: 12

CPU 0 runs /home/faculty/p/pgratz/dpc3_traces/602.gcc_s-734B.champsimtrace.xz
CPU 0 Bimodal branch predictor
Basic BTB sets: 1024 ways: 8 indirect buffer size: 4096 RAS size: 64
cpu0_L2C PPF SPP DEV Prefetcher
Heartbeat CPU 0 instructions: 10000002 cycles: 2500071 heartbeat IPC: 3.99989 cumulative IPC: 3.99989 (Simulation time: 0 hr 0 min 29 sec) 
Heartbeat CPU 0 instructions: 20000003 cycles: 5000457 heartbeat IPC: 3.99938 cumulative IPC: 3.99963 (Simulation time: 0 hr 0 min 59 sec) 
Heartbeat CPU 0 instructions: 30000003 cycles: 7500457 heartbeat IPC: 4 cumulative IPC: 3.99976 (Simulation time: 0 hr 1 min 28 sec) 
Heartbeat CPU 0 instructions: 40000000 cycles: 10000461 heartbeat IPC: 3.99999 cumulative IPC: 3.99982 (Simulation time: 0 hr 1 min 58 sec) 
Heartbeat CPU 0 instructions: 50000000 cycles: 12500461 heartbeat IPC: 4 cumulative IPC: 3.99985 (Simulation time: 0 hr 2 min 27 sec) 
Heartbeat CPU 0 instructions: 60000000 cycles: 15000461 heartbeat IPC: 4 cumulative IPC: 3.99988 (Simulation time: 0 hr 2 min 56 sec) 
Heartbeat CPU 0 instructions: 70000001 cycles: 17506792 heartbeat IPC: 3.9899 cumulative IPC: 3.99845 (Simulation time: 0 hr 3 min 26 sec) 
Heartbeat CPU 0 instructions: 80000001 cycles: 20006792 heartbeat IPC: 4 cumulative IPC: 3.99864 (Simulation time: 0 hr 3 min 55 sec) 
Heartbeat CPU 0 instructions: 90000001 cycles: 22506792 heartbeat IPC: 4 cumulative IPC: 3.99879 (Simulation time: 0 hr 4 min 24 sec) 
Heartbeat CPU 0 instructions: 100000002 cycles: 25246883 heartbeat IPC: 3.64951 cumulative IPC: 3.96089 (Simulation time: 0 hr 4 min 58 sec) 
Heartbeat CPU 0 instructions: 110000002 cycles: 27746883 heartbeat IPC: 4 cumulative IPC: 3.96441 (Simulation time: 0 hr 5 min 27 sec) 
Heartbeat CPU 0 instructions: 120000002 cycles: 30246883 heartbeat IPC: 4 cumulative IPC: 3.96735 (Simulation time: 0 hr 5 min 57 sec) 
Heartbeat CPU 0 instructions: 130000002 cycles: 32803547 heartbeat IPC: 3.91135 cumulative IPC: 3.96299 (Simulation time: 0 hr 6 min 27 sec) 
Heartbeat CPU 0 instructions: 140000002 cycles: 35303547 heartbeat IPC: 4 cumulative IPC: 3.96561 (Simulation time: 0 hr 6 min 56 sec) 
Heartbeat CPU 0 instructions: 150000002 cycles: 37803568 heartbeat IPC: 3.99997 cumulative IPC: 3.96788 (Simulation time: 0 hr 7 min 26 sec) 
Heartbeat CPU 0 instructions: 160000002 cycles: 40306581 heartbeat IPC: 3.99518 cumulative IPC: 3.96958 (Simulation time: 0 hr 7 min 55 sec) 
Heartbeat CPU 0 instructions: 170000002 cycles: 42806581 heartbeat IPC: 4 cumulative IPC: 3.97135 (Simulation time: 0 hr 8 min 24 sec) 
Heartbeat CPU 0 instructions: 180000002 cycles: 45306581 heartbeat IPC: 4 cumulative IPC: 3.97293 (Simulation time: 0 hr 8 min 54 sec) 
Heartbeat CPU 0 instructions: 190000002 cycles: 47806581 heartbeat IPC: 4 cumulative IPC: 3.97435 (Simulation time: 0 hr 9 min 24 sec) 
Heartbeat CPU 0 instructions: 200000000 cycles: 50307081 heartbeat IPC: 3.9992 cumulative IPC: 3.97558 (Simulation time: 0 hr 9 min 54 sec) 

Warmup complete CPU 0 instructions: 200000004 cycles: 50307082 (Simulation time: 0 hr 9 min 54 sec) 

Heartbeat CPU 0 instructions: 210000000 cycles: 60196995 heartbeat IPC: 1.01113 cumulative IPC: 1.01113 (Simulation time: 0 hr 10 min 28 sec) 
Heartbeat CPU 0 instructions: 220000001 cycles: 70374992 heartbeat IPC: 0.982512 cumulative IPC: 0.996616 (Simulation time: 0 hr 11 min 3 sec) 
Heartbeat CPU 0 instructions: 230000002 cycles: 80271578 heartbeat IPC: 1.01045 cumulative IPC: 1.00118 (Simulation time: 0 hr 11 min 37 sec) 
Heartbeat CPU 0 instructions: 240000001 cycles: 90245924 heartbeat IPC: 1.00257 cumulative IPC: 1.00153 (Simulation time: 0 hr 12 min 11 sec) 
Heartbeat CPU 0 instructions: 250000000 cycles: 100761719 heartbeat IPC: 0.95095 cumulative IPC: 0.990989 (Simulation time: 0 hr 12 min 46 sec) 
Heartbeat CPU 0 instructions: 260000000 cycles: 110668361 heartbeat IPC: 1.00942 cumulative IPC: 0.994015 (Simulation time: 0 hr 13 min 20 sec) 
Heartbeat CPU 0 instructions: 270000000 cycles: 120728948 heartbeat IPC: 0.993978 cumulative IPC: 0.994009 (Simulation time: 0 hr 13 min 55 sec) 
Heartbeat CPU 0 instructions: 280000001 cycles: 130613215 heartbeat IPC: 1.01171 cumulative IPC: 0.996188 (Simulation time: 0 hr 14 min 29 sec) 
Heartbeat CPU 0 instructions: 290000000 cycles: 140557795 heartbeat IPC: 1.00557 cumulative IPC: 0.997222 (Simulation time: 0 hr 15 min 2 sec) 
Heartbeat CPU 0 instructions: 300000002 cycles: 150671454 heartbeat IPC: 0.988762 cumulative IPC: 0.996369 (Simulation time: 0 hr 15 min 37 sec) 
Heartbeat CPU 0 instructions: 310000003 cycles: 160555826 heartbeat IPC: 1.0117 cumulative IPC: 0.997744 (Simulation time: 0 hr 16 min 11 sec) 
Heartbeat CPU 0 instructions: 320000000 cycles: 170575528 heartbeat IPC: 0.998033 cumulative IPC: 0.997768 (Simulation time: 0 hr 16 min 45 sec) 
Heartbeat CPU 0 instructions: 330000003 cycles: 180788421 heartbeat IPC: 0.979155 cumulative IPC: 0.996311 (Simulation time: 0 hr 17 min 19 sec) 
Heartbeat CPU 0 instructions: 340000004 cycles: 190675600 heartbeat IPC: 1.01141 cumulative IPC: 0.997375 (Simulation time: 0 hr 17 min 53 sec) 
Heartbeat CPU 0 instructions: 350000002 cycles: 200702676 heartbeat IPC: 0.997299 cumulative IPC: 0.99737 (Simulation time: 0 hr 18 min 27 sec) 
Heartbeat CPU 0 instructions: 360000001 cycles: 210842362 heartbeat IPC: 0.986224 cumulative IPC: 0.996666 (Simulation time: 0 hr 19 min 1 sec) 
Heartbeat CPU 0 instructions: 370000001 cycles: 220739356 heartbeat IPC: 1.01041 cumulative IPC: 0.997464 (Simulation time: 0 hr 19 min 35 sec) 
Heartbeat CPU 0 instructions: 380000000 cycles: 230793777 heartbeat IPC: 0.994587 cumulative IPC: 0.997303 (Simulation time: 0 hr 20 min 9 sec) 
Heartbeat CPU 0 instructions: 390000000 cycles: 240884708 heartbeat IPC: 0.990989 cumulative IPC: 0.996969 (Simulation time: 0 hr 20 min 44 sec) 
Heartbeat CPU 0 instructions: 400000003 cycles: 250761950 heartbeat IPC: 1.01243 cumulative IPC: 0.997731 (Simulation time: 0 hr 21 min 18 sec) 
Heartbeat CPU 0 instructions: 410000001 cycles: 260764029 heartbeat IPC: 0.999792 cumulative IPC: 0.997829 (Simulation time: 0 hr 21 min 52 sec) 
Heartbeat CPU 0 instructions: 420000001 cycles: 272172228 heartbeat IPC: 0.876563 cumulative IPC: 0.991593 (Simulation time: 0 hr 22 min 28 sec) 
Heartbeat CPU 0 instructions: 430000002 cycles: 282048493 heartbeat IPC: 1.01253 cumulative IPC: 0.992486 (Simulation time: 0 hr 23 min 2 sec) 
Heartbeat CPU 0 instructions: 440000001 cycles: 292067034 heartbeat IPC: 0.998149 cumulative IPC: 0.99272 (Simulation time: 0 hr 23 min 36 sec) 
Heartbeat CPU 0 instructions: 450000000 cycles: 302192703 heartbeat IPC: 0.987589 cumulative IPC: 0.992514 (Simulation time: 0 hr 24 min 11 sec) 
Heartbeat CPU 0 instructions: 460000000 cycles: 312062462 heartbeat IPC: 1.0132 cumulative IPC: 0.993294 (Simulation time: 0 hr 24 min 45 sec) 
Heartbeat CPU 0 instructions: 470000001 cycles: 322207929 heartbeat IPC: 0.985662 cumulative IPC: 0.993009 (Simulation time: 0 hr 25 min 19 sec) 
Heartbeat CPU 0 instructions: 480000001 cycles: 333129186 heartbeat IPC: 0.915646 cumulative IPC: 0.990022 (Simulation time: 0 hr 25 min 55 sec) 
Heartbeat CPU 0 instructions: 490000000 cycles: 343043940 heartbeat IPC: 1.0086 cumulative IPC: 0.990651 (Simulation time: 0 hr 26 min 29 sec) 
Heartbeat CPU 0 instructions: 500000002 cycles: 353191877 heartbeat IPC: 0.985422 cumulative IPC: 0.990476 (Simulation time: 0 hr 27 min 4 sec) 
Heartbeat CPU 0 instructions: 510000001 cycles: 363055956 heartbeat IPC: 1.01378 cumulative IPC: 0.991211 (Simulation time: 0 hr 27 min 37 sec) 
Heartbeat CPU 0 instructions: 520000002 cycles: 373171396 heartbeat IPC: 0.988588 cumulative IPC: 0.991128 (Simulation time: 0 hr 28 min 11 sec) 
Heartbeat CPU 0 instructions: 530000001 cycles: 383124880 heartbeat IPC: 1.00467 cumulative IPC: 0.991534 (Simulation time: 0 hr 28 min 46 sec) 
Heartbeat CPU 0 instructions: 540000004 cycles: 393014453 heartbeat IPC: 1.01117 cumulative IPC: 0.9921 (Simulation time: 0 hr 29 min 20 sec) 
Heartbeat CPU 0 instructions: 550000000 cycles: 403004471 heartbeat IPC: 1.001 cumulative IPC: 0.992352 (Simulation time: 0 hr 29 min 54 sec) 
Heartbeat CPU 0 instructions: 560000000 cycles: 414550973 heartbeat IPC: 0.866063 cumulative IPC: 0.988349 (Simulation time: 0 hr 30 min 30 sec) 
Heartbeat CPU 0 instructions: 570000004 cycles: 424741720 heartbeat IPC: 0.981283 cumulative IPC: 0.988156 (Simulation time: 0 hr 31 min 4 sec) 
Heartbeat CPU 0 instructions: 580000000 cycles: 435123577 heartbeat IPC: 0.963218 cumulative IPC: 0.987484 (Simulation time: 0 hr 31 min 40 sec) 
Heartbeat CPU 0 instructions: 590000000 cycles: 444999170 heartbeat IPC: 1.0126 cumulative IPC: 0.988112 (Simulation time: 0 hr 32 min 14 sec) 
Heartbeat CPU 0 instructions: 600000001 cycles: 454922103 heartbeat IPC: 1.00777 cumulative IPC: 0.988594 (Simulation time: 0 hr 32 min 47 sec) 
Heartbeat CPU 0 instructions: 610000003 cycles: 465053570 heartbeat IPC: 0.987024 cumulative IPC: 0.988556 (Simulation time: 0 hr 33 min 22 sec) 
Heartbeat CPU 0 instructions: 620000000 cycles: 474937992 heartbeat IPC: 1.01169 cumulative IPC: 0.989094 (Simulation time: 0 hr 33 min 56 sec) 
Heartbeat CPU 0 instructions: 630000004 cycles: 484857571 heartbeat IPC: 1.00811 cumulative IPC: 0.989528 (Simulation time: 0 hr 34 min 30 sec) 
Heartbeat CPU 0 instructions: 640000003 cycles: 494951461 heartbeat IPC: 0.990698 cumulative IPC: 0.989555 (Simulation time: 0 hr 35 min 4 sec) 
Heartbeat CPU 0 instructions: 650000002 cycles: 504825477 heartbeat IPC: 1.01276 cumulative IPC: 0.990059 (Simulation time: 0 hr 35 min 38 sec) 
Heartbeat CPU 0 instructions: 660000003 cycles: 514808442 heartbeat IPC: 1.00171 cumulative IPC: 0.990309 (Simulation time: 0 hr 36 min 12 sec) 
Heartbeat CPU 0 instructions: 670000003 cycles: 524927138 heartbeat IPC: 0.98827 cumulative IPC: 0.990266 (Simulation time: 0 hr 36 min 46 sec) 
Heartbeat CPU 0 instructions: 680000000 cycles: 534816338 heartbeat IPC: 1.0112 cumulative IPC: 0.990693 (Simulation time: 0 hr 37 min 20 sec) 
Heartbeat CPU 0 instructions: 690000001 cycles: 544811190 heartbeat IPC: 1.00052 cumulative IPC: 0.990892 (Simulation time: 0 hr 37 min 54 sec) 
Heartbeat CPU 0 instructions: 700000001 cycles: 554930487 heartbeat IPC: 0.988211 cumulative IPC: 0.990838 (Simulation time: 0 hr 38 min 29 sec) 
Heartbeat CPU 0 instructions: 710000001 cycles: 564823454 heartbeat IPC: 1.01082 cumulative IPC: 0.991222 (Simulation time: 0 hr 39 min 2 sec) 
Heartbeat CPU 0 instructions: 720000000 cycles: 574895020 heartbeat IPC: 0.992894 cumulative IPC: 0.991254 (Simulation time: 0 hr 39 min 37 sec) 
Heartbeat CPU 0 instructions: 730000004 cycles: 585157565 heartbeat IPC: 0.974418 cumulative IPC: 0.990931 (Simulation time: 0 hr 40 min 11 sec) 
Heartbeat CPU 0 instructions: 740000004 cycles: 595376411 heartbeat IPC: 0.978584 cumulative IPC: 0.9907 (Simulation time: 0 hr 40 min 46 sec) 
Heartbeat CPU 0 instructions: 750000001 cycles: 605833755 heartbeat IPC: 0.956265 cumulative IPC: 0.990051 (Simulation time: 0 hr 41 min 20 sec) 
Heartbeat CPU 0 instructions: 760000002 cycles: 619748778 heartbeat IPC: 0.718648 cumulative IPC: 0.983419 (Simulation time: 0 hr 41 min 58 sec) 
Heartbeat CPU 0 instructions: 770000000 cycles: 631290569 heartbeat IPC: 0.866417 cumulative IPC: 0.981095 (Simulation time: 0 hr 42 min 34 sec) 
Heartbeat CPU 0 instructions: 780000000 cycles: 641196239 heartbeat IPC: 1.00952 cumulative IPC: 0.981572 (Simulation time: 0 hr 43 min 7 sec) 
Heartbeat CPU 0 instructions: 790000004 cycles: 651341085 heartbeat IPC: 0.985723 cumulative IPC: 0.981642 (Simulation time: 0 hr 43 min 42 sec) 
Heartbeat CPU 0 instructions: 800000001 cycles: 661338874 heartbeat IPC: 1.00022 cumulative IPC: 0.981946 (Simulation time: 0 hr 44 min 16 sec) 
Heartbeat CPU 0 instructions: 810000000 cycles: 671253783 heartbeat IPC: 1.00858 cumulative IPC: 0.982371 (Simulation time: 0 hr 44 min 50 sec) 
Heartbeat CPU 0 instructions: 820000000 cycles: 681530992 heartbeat IPC: 0.973027 cumulative IPC: 0.982219 (Simulation time: 0 hr 45 min 24 sec) 
Heartbeat CPU 0 instructions: 830000002 cycles: 691702217 heartbeat IPC: 0.983166 cumulative IPC: 0.982234 (Simulation time: 0 hr 45 min 58 sec) 
Heartbeat CPU 0 instructions: 840000002 cycles: 701931833 heartbeat IPC: 0.977554 cumulative IPC: 0.98216 (Simulation time: 0 hr 46 min 33 sec) 
Heartbeat CPU 0 instructions: 850000004 cycles: 712130667 heartbeat IPC: 0.980504 cumulative IPC: 0.982135 (Simulation time: 0 hr 47 min 8 sec) 
Heartbeat CPU 0 instructions: 860000004 cycles: 722004707 heartbeat IPC: 1.01276 cumulative IPC: 0.982585 (Simulation time: 0 hr 47 min 42 sec) 
Heartbeat CPU 0 instructions: 870000000 cycles: 731992338 heartbeat IPC: 1.00124 cumulative IPC: 0.982858 (Simulation time: 0 hr 48 min 16 sec) 
Heartbeat CPU 0 instructions: 880000003 cycles: 742036305 heartbeat IPC: 0.995623 cumulative IPC: 0.983044 (Simulation time: 0 hr 48 min 50 sec) 
Heartbeat CPU 0 instructions: 890000003 cycles: 751931637 heartbeat IPC: 1.01058 cumulative IPC: 0.983432 (Simulation time: 0 hr 49 min 24 sec) 
Heartbeat CPU 0 instructions: 900000000 cycles: 762044922 heartbeat IPC: 0.988798 cumulative IPC: 0.983508 (Simulation time: 0 hr 49 min 58 sec) 
Heartbeat CPU 0 instructions: 910000000 cycles: 772045974 heartbeat IPC: 0.999895 cumulative IPC: 0.983735 (Simulation time: 0 hr 50 min 32 sec) 
Heartbeat CPU 0 instructions: 920000003 cycles: 781949299 heartbeat IPC: 1.00976 cumulative IPC: 0.984088 (Simulation time: 0 hr 51 min 6 sec) 
Heartbeat CPU 0 instructions: 930000000 cycles: 792048401 heartbeat IPC: 0.990187 cumulative IPC: 0.984171 (Simulation time: 0 hr 51 min 40 sec) 
Heartbeat CPU 0 instructions: 940000003 cycles: 802035639 heartbeat IPC: 1.00128 cumulative IPC: 0.984398 (Simulation time: 0 hr 52 min 14 sec) 
Heartbeat CPU 0 instructions: 950000001 cycles: 811939033 heartbeat IPC: 1.00975 cumulative IPC: 0.984728 (Simulation time: 0 hr 52 min 48 sec) 
Heartbeat CPU 0 instructions: 960000003 cycles: 822084295 heartbeat IPC: 0.985682 cumulative IPC: 0.98474 (Simulation time: 0 hr 53 min 22 sec) 
Heartbeat CPU 0 instructions: 970000002 cycles: 832129955 heartbeat IPC: 0.995455 cumulative IPC: 0.984878 (Simulation time: 0 hr 53 min 56 sec) 
Heartbeat CPU 0 instructions: 980000000 cycles: 842032937 heartbeat IPC: 1.0098 cumulative IPC: 0.985189 (Simulation time: 0 hr 54 min 30 sec) 
Heartbeat CPU 0 instructions: 990000000 cycles: 852141504 heartbeat IPC: 0.98926 cumulative IPC: 0.985241 (Simulation time: 0 hr 55 min 5 sec) 
Heartbeat CPU 0 instructions: 1000000001 cycles: 862050650 heartbeat IPC: 1.00917 cumulative IPC: 0.985533 (Simulation time: 0 hr 55 min 38 sec) 
Heartbeat CPU 0 instructions: 1010000002 cycles: 871943521 heartbeat IPC: 1.01083 cumulative IPC: 0.985837 (Simulation time: 0 hr 56 min 12 sec) 
Heartbeat CPU 0 instructions: 1020000000 cycles: 882053004 heartbeat IPC: 0.98917 cumulative IPC: 0.985878 (Simulation time: 0 hr 56 min 47 sec) 
Heartbeat CPU 0 instructions: 1030000004 cycles: 891950449 heartbeat IPC: 1.01036 cumulative IPC: 0.986166 (Simulation time: 0 hr 57 min 21 sec) 
Heartbeat CPU 0 instructions: 1040000004 cycles: 901867193 heartbeat IPC: 1.0084 cumulative IPC: 0.986425 (Simulation time: 0 hr 57 min 55 sec) 
Heartbeat CPU 0 instructions: 1050000000 cycles: 912036024 heartbeat IPC: 0.983397 cumulative IPC: 0.986389 (Simulation time: 0 hr 58 min 30 sec) 
Heartbeat CPU 0 instructions: 1060000001 cycles: 921931954 heartbeat IPC: 1.01052 cumulative IPC: 0.986663 (Simulation time: 0 hr 59 min 4 sec) 
Heartbeat CPU 0 instructions: 1070000004 cycles: 931848413 heartbeat IPC: 1.00842 cumulative IPC: 0.986908 (Simulation time: 0 hr 59 min 37 sec) 
Heartbeat CPU 0 instructions: 1080000001 cycles: 942034004 heartbeat IPC: 0.981779 cumulative IPC: 0.986849 (Simulation time: 1 hr 0 min 12 sec) 
Heartbeat CPU 0 instructions: 1090000000 cycles: 951931696 heartbeat IPC: 1.01034 cumulative IPC: 0.987107 (Simulation time: 1 hr 0 min 46 sec) 
Heartbeat CPU 0 instructions: 1100000003 cycles: 961853124 heartbeat IPC: 1.00792 cumulative IPC: 0.987334 (Simulation time: 1 hr 1 min 19 sec) 
Heartbeat CPU 0 instructions: 1110000000 cycles: 972016700 heartbeat IPC: 0.983905 cumulative IPC: 0.987296 (Simulation time: 1 hr 1 min 54 sec) 
Heartbeat CPU 0 instructions: 1120000004 cycles: 981912902 heartbeat IPC: 1.01049 cumulative IPC: 0.987542 (Simulation time: 1 hr 2 min 28 sec) 
Heartbeat CPU 0 instructions: 1130000000 cycles: 991877673 heartbeat IPC: 1.00353 cumulative IPC: 0.987711 (Simulation time: 1 hr 3 min 2 sec) 
Heartbeat CPU 0 instructions: 1140000003 cycles: 1001995206 heartbeat IPC: 0.988384 cumulative IPC: 0.987719 (Simulation time: 1 hr 3 min 36 sec) 
Heartbeat CPU 0 instructions: 1150000004 cycles: 1011882396 heartbeat IPC: 1.01141 cumulative IPC: 0.987962 (Simulation time: 1 hr 4 min 10 sec) 
Heartbeat CPU 0 instructions: 1160000001 cycles: 1021838131 heartbeat IPC: 1.00445 cumulative IPC: 0.988131 (Simulation time: 1 hr 4 min 43 sec) 
Heartbeat CPU 0 instructions: 1170000001 cycles: 1031963228 heartbeat IPC: 0.987645 cumulative IPC: 0.988126 (Simulation time: 1 hr 5 min 18 sec) 
Heartbeat CPU 0 instructions: 1180000001 cycles: 1041840376 heartbeat IPC: 1.01244 cumulative IPC: 0.988368 (Simulation time: 1 hr 5 min 52 sec) 
Heartbeat CPU 0 instructions: 1190000001 cycles: 1051883553 heartbeat IPC: 0.995701 cumulative IPC: 0.988442 (Simulation time: 1 hr 6 min 25 sec) 
Heartbeat CPU 0 instructions: 1200000001 cycles: 1061977572 heartbeat IPC: 0.990686 cumulative IPC: 0.988464 (Simulation time: 1 hr 7 min 0 sec) 
Finished CPU 0 instructions: 1000000002 cycles: 1011670491 cumulative IPC: 0.988464 (Simulation time: 1 hr 7 min 0 sec) 

ChampSim completed all CPUs

Region of Interest Statistics

CPU 0 cumulative IPC: 0.988464 instructions: 1000000002 cycles: 1011670491
cpu0_DTLB TOTAL     ACCESS:  185419321  HIT:  184975296  MISS:     444025
cpu0_DTLB LOAD      ACCESS:  147572478  HIT:  147129562  MISS:     442916
cpu0_DTLB RFO       ACCESS:   37846843  HIT:   37845734  MISS:       1109
cpu0_DTLB PREFETCH  ACCESS:          0  HIT:          0  MISS:          0
cpu0_DTLB WRITEBACK ACCESS:          0  HIT:          0  MISS:          0
cpu0_DTLB TRANSLATION ACCESS:          0  HIT:          0  MISS:          0
cpu0_DTLB PREFETCH  REQUESTED:          0  ISSUED:          0  USEFUL:          0  USELESS:          0
cpu0_DTLB AVERAGE MISS LATENCY: 16.3018 cycles
cpu0_ITLB TOTAL     ACCESS:  112349605  HIT:  112349605  MISS:          0
cpu0_ITLB LOAD      ACCESS:  112349605  HIT:  112349605  MISS:          0
cpu0_ITLB RFO       ACCESS:          0  HIT:          0  MISS:          0
cpu0_ITLB PREFETCH  ACCESS:          0  HIT:          0  MISS:          0
cpu0_ITLB WRITEBACK ACCESS:          0  HIT:          0  MISS:          0
cpu0_ITLB TRANSLATION ACCESS:          0  HIT:          0  MISS:          0
cpu0_ITLB PREFETCH  REQUESTED:          0  ISSUED:          0  USEFUL:          0  USELESS:          0
cpu0_ITLB AVERAGE MISS LATENCY: -nan cycles
cpu0_L1I TOTAL     ACCESS:     229088  HIT:     229087  MISS:          1
cpu0_L1I LOAD      ACCESS:     229088  HIT:     229087  MISS:          1
cpu0_L1I RFO       ACCESS:          0  HIT:          0  MISS:          0
cpu0_L1I PREFETCH  ACCESS:          0  HIT:          0  MISS:          0
cpu0_L1I WRITEBACK ACCESS:          0  HIT:          0  MISS:          0
cpu0_L1I TRANSLATION ACCESS:          0  HIT:          0  MISS:          0
cpu0_L1I PREFETCH  REQUESTED:          0  ISSUED:          0  USEFUL:          0  USELESS:          0
cpu0_L1I AVERAGE MISS LATENCY: 194 cycles
cpu0_STLB TOTAL     ACCESS:     444025  HIT:     388216  MISS:      55809
cpu0_STLB LOAD      ACCESS:     442916  HIT:     387422  MISS:      55494
cpu0_STLB RFO       ACCESS:       1109  HIT:        794  MISS:        315
cpu0_STLB PREFETCH  ACCESS:          0  HIT:          0  MISS:          0
cpu0_STLB WRITEBACK ACCESS:          0  HIT:          0  MISS:          0
cpu0_STLB TRANSLATION ACCESS:          0  HIT:          0  MISS:          0
cpu0_STLB PREFETCH  REQUESTED:          0  ISSUED:          0  USEFUL:          0  USELESS:          0
cpu0_STLB AVERAGE MISS LATENCY: 42.1661 cycles
cpu0_L1D TOTAL     ACCESS:  227629059  HIT:  211113613  MISS:   16515446
cpu0_L1D LOAD      ACCESS:  127475292  HIT:  110986874  MISS:   16488418
cpu0_L1D RFO       ACCESS:  100098124  HIT:  100088160  MISS:       9964
cpu0_L1D PREFETCH  ACCESS:          0  HIT:          0  MISS:          0
cpu0_L1D WRITEBACK ACCESS:          0  HIT:          0  MISS:          0
cpu0_L1D TRANSLATION ACCESS:      55643  HIT:      38579  MISS:      17064
cpu0_L1D PREFETCH  REQUESTED:          0  ISSUED:          0  USEFUL:          0  USELESS:          0
cpu0_L1D AVERAGE MISS LATENCY: 15.3898 cycles
cpu0_L2C TOTAL     ACCESS:   44075633  HIT:   35199781  MISS:    8875852
cpu0_L2C LOAD      ACCESS:   16488419  HIT:   16088934  MISS:     399485
cpu0_L2C RFO       ACCESS:       9964  HIT:       2560  MISS:       7404
cpu0_L2C PREFETCH  ACCESS:   27395716  HIT:   18932826  MISS:    8462890
cpu0_L2C WRITEBACK ACCESS:     164470  HIT:     164424  MISS:         46
cpu0_L2C TRANSLATION ACCESS:      17064  HIT:      11037  MISS:       6027
cpu0_L2C PREFETCH  REQUESTED:   40372279  ISSUED:   40178640  USEFUL:    8005763  USELESS:     479822
cpu0_L2C AVERAGE MISS LATENCY: 67.9634 cycles
LLC TOTAL     ACCESS:   21078043  HIT:   12053233  MISS:    9024810
LLC LOAD      ACCESS:     376817  HIT:      19008  MISS:     357809
LLC RFO       ACCESS:       7346  HIT:        164  MISS:       7182
LLC PREFETCH  ACCESS:   20608272  HIT:   11971169  MISS:    8637103
LLC WRITEBACK ACCESS:      79581  HIT:      61485  MISS:      18096
LLC TRANSLATION ACCESS:       6027  HIT:       1407  MISS:       4620
LLC PREFETCH  REQUESTED:          0  ISSUED:          0  USEFUL:          0  USELESS:          0
LLC AVERAGE MISS LATENCY: 112.433 cycles
Printing the final status 

DRAM Statistics
 CHANNEL 0
 RQ ROW_BUFFER_HIT:    6453471  ROW_BUFFER_MISS:    2553238
 DBUS AVG_CONGESTED_CYCLE:    3.96038
 WQ ROW_BUFFER_HIT:      52516  ROW_BUFFER_MISS:      26255  FULL:          0


CPU 0 Branch Prediction Accuracy: 94.6562% MPKI: 12.6924 Average ROB Occupancy at Mispredict: 58.5653
Branch type MPKI
BRANCH_DIRECT_JUMP: 4e-06
BRANCH_INDIRECT: 0
BRANCH_CONDITIONAL: 12.6924
BRANCH_DIRECT_CALL: 1e-06
BRANCH_INDIRECT_CALL: 2e-06
BRANCH_RETURN: 1e-06

***************** Done with 602.gcc_s-734B.champsimtrace.xz using ppf-spp-dev-3, on Wed Apr 20 12:49:08 CDT 2022 ******************
