Started running file 625.x264_s-18B.champsimtrace.xz at time Wed Apr 20 18:34:36 CDT 2022 with prefetcher ppf-spp-dev-3

*** ChampSim Multicore Out-of-Order Simulator ***

Warmup Instructions: 200000000
Simulation Instructions: 1000000000
Number of CPUs: 1
Off-chip DRAM Size: 4 GiB Channels: 1 Width: 64-bit Data Rate: 3200 MT/s

VirtualMemory physical capacity: 8588881920 num_ppages: 2096895
VirtualMemory page size: 4096 log2_page_size: 12

CPU 0 runs /home/faculty/p/pgratz/dpc3_traces/625.x264_s-18B.champsimtrace.xz
CPU 0 Bimodal branch predictor
Basic BTB sets: 1024 ways: 8 indirect buffer size: 4096 RAS size: 64
cpu0_L2C PPF SPP DEV Prefetcher
Heartbeat CPU 0 instructions: 10000003 cycles: 2500081 heartbeat IPC: 3.99987 cumulative IPC: 3.99987 (Simulation time: 0 hr 0 min 29 sec) 
Heartbeat CPU 0 instructions: 20000003 cycles: 5000081 heartbeat IPC: 4 cumulative IPC: 3.99994 (Simulation time: 0 hr 0 min 58 sec) 
Heartbeat CPU 0 instructions: 30000001 cycles: 7500251 heartbeat IPC: 3.99973 cumulative IPC: 3.99987 (Simulation time: 0 hr 1 min 27 sec) 
Heartbeat CPU 0 instructions: 40000001 cycles: 10000251 heartbeat IPC: 4 cumulative IPC: 3.9999 (Simulation time: 0 hr 1 min 56 sec) 
Heartbeat CPU 0 instructions: 50000001 cycles: 12500251 heartbeat IPC: 4 cumulative IPC: 3.99992 (Simulation time: 0 hr 2 min 24 sec) 
Heartbeat CPU 0 instructions: 60000001 cycles: 15000251 heartbeat IPC: 4 cumulative IPC: 3.99993 (Simulation time: 0 hr 2 min 53 sec) 
Heartbeat CPU 0 instructions: 70000001 cycles: 17500251 heartbeat IPC: 4 cumulative IPC: 3.99994 (Simulation time: 0 hr 3 min 22 sec) 
Heartbeat CPU 0 instructions: 80000001 cycles: 20000251 heartbeat IPC: 4 cumulative IPC: 3.99995 (Simulation time: 0 hr 3 min 51 sec) 
Heartbeat CPU 0 instructions: 90000001 cycles: 22500251 heartbeat IPC: 4 cumulative IPC: 3.99996 (Simulation time: 0 hr 4 min 19 sec) 
Heartbeat CPU 0 instructions: 100000001 cycles: 25000251 heartbeat IPC: 4 cumulative IPC: 3.99996 (Simulation time: 0 hr 4 min 48 sec) 
Heartbeat CPU 0 instructions: 110000001 cycles: 27500251 heartbeat IPC: 4 cumulative IPC: 3.99996 (Simulation time: 0 hr 5 min 17 sec) 
Heartbeat CPU 0 instructions: 120000001 cycles: 30000251 heartbeat IPC: 4 cumulative IPC: 3.99997 (Simulation time: 0 hr 5 min 45 sec) 
Heartbeat CPU 0 instructions: 130000001 cycles: 32500251 heartbeat IPC: 4 cumulative IPC: 3.99997 (Simulation time: 0 hr 6 min 14 sec) 
Heartbeat CPU 0 instructions: 140000000 cycles: 35011559 heartbeat IPC: 3.98199 cumulative IPC: 3.99868 (Simulation time: 0 hr 6 min 44 sec) 
Heartbeat CPU 0 instructions: 150000003 cycles: 37563407 heartbeat IPC: 3.91873 cumulative IPC: 3.99325 (Simulation time: 0 hr 7 min 14 sec) 
Heartbeat CPU 0 instructions: 160000003 cycles: 40086275 heartbeat IPC: 3.96374 cumulative IPC: 3.99139 (Simulation time: 0 hr 7 min 42 sec) 
Heartbeat CPU 0 instructions: 170000003 cycles: 42614523 heartbeat IPC: 3.95531 cumulative IPC: 3.98925 (Simulation time: 0 hr 8 min 11 sec) 
Heartbeat CPU 0 instructions: 180000001 cycles: 45135587 heartbeat IPC: 3.96658 cumulative IPC: 3.98798 (Simulation time: 0 hr 8 min 39 sec) 
Heartbeat CPU 0 instructions: 190000003 cycles: 47661917 heartbeat IPC: 3.95831 cumulative IPC: 3.98641 (Simulation time: 0 hr 9 min 8 sec) 
Heartbeat CPU 0 instructions: 200000002 cycles: 50192718 heartbeat IPC: 3.95132 cumulative IPC: 3.98464 (Simulation time: 0 hr 9 min 37 sec) 

Warmup complete CPU 0 instructions: 200000002 cycles: 50192718 (Simulation time: 0 hr 9 min 37 sec) 

Heartbeat CPU 0 instructions: 210000001 cycles: 53990035 heartbeat IPC: 2.63344 cumulative IPC: 2.63344 (Simulation time: 0 hr 10 min 5 sec) 
Heartbeat CPU 0 instructions: 220000002 cycles: 57900360 heartbeat IPC: 2.55733 cumulative IPC: 2.59483 (Simulation time: 0 hr 10 min 34 sec) 
Heartbeat CPU 0 instructions: 230000003 cycles: 61811038 heartbeat IPC: 2.5571 cumulative IPC: 2.58213 (Simulation time: 0 hr 11 min 3 sec) 
Heartbeat CPU 0 instructions: 240000004 cycles: 65680865 heartbeat IPC: 2.5841 cumulative IPC: 2.58262 (Simulation time: 0 hr 11 min 31 sec) 
Heartbeat CPU 0 instructions: 250000004 cycles: 69622468 heartbeat IPC: 2.53704 cumulative IPC: 2.57337 (Simulation time: 0 hr 12 min 0 sec) 
Heartbeat CPU 0 instructions: 260000001 cycles: 73466950 heartbeat IPC: 2.60113 cumulative IPC: 2.57796 (Simulation time: 0 hr 12 min 29 sec) 
Heartbeat CPU 0 instructions: 270000001 cycles: 77315727 heartbeat IPC: 2.59823 cumulative IPC: 2.58083 (Simulation time: 0 hr 12 min 57 sec) 
Heartbeat CPU 0 instructions: 280000000 cycles: 81251109 heartbeat IPC: 2.54105 cumulative IPC: 2.57579 (Simulation time: 0 hr 13 min 26 sec) 
Heartbeat CPU 0 instructions: 290000001 cycles: 85091324 heartbeat IPC: 2.60402 cumulative IPC: 2.5789 (Simulation time: 0 hr 13 min 55 sec) 
Heartbeat CPU 0 instructions: 300000002 cycles: 88909599 heartbeat IPC: 2.61898 cumulative IPC: 2.58285 (Simulation time: 0 hr 14 min 23 sec) 
Heartbeat CPU 0 instructions: 310000001 cycles: 92866150 heartbeat IPC: 2.52745 cumulative IPC: 2.57772 (Simulation time: 0 hr 14 min 52 sec) 
Heartbeat CPU 0 instructions: 320000001 cycles: 96694641 heartbeat IPC: 2.612 cumulative IPC: 2.58054 (Simulation time: 0 hr 15 min 21 sec) 
Heartbeat CPU 0 instructions: 330000002 cycles: 100497422 heartbeat IPC: 2.62965 cumulative IPC: 2.58425 (Simulation time: 0 hr 15 min 50 sec) 
Heartbeat CPU 0 instructions: 340000001 cycles: 104310016 heartbeat IPC: 2.62289 cumulative IPC: 2.58697 (Simulation time: 0 hr 16 min 18 sec) 
Heartbeat CPU 0 instructions: 350000000 cycles: 108121440 heartbeat IPC: 2.62369 cumulative IPC: 2.58939 (Simulation time: 0 hr 16 min 47 sec) 
Heartbeat CPU 0 instructions: 360000002 cycles: 111929495 heartbeat IPC: 2.62601 cumulative IPC: 2.59165 (Simulation time: 0 hr 17 min 16 sec) 
Heartbeat CPU 0 instructions: 370000000 cycles: 115735565 heartbeat IPC: 2.62738 cumulative IPC: 2.59372 (Simulation time: 0 hr 17 min 45 sec) 
Heartbeat CPU 0 instructions: 380000002 cycles: 119562135 heartbeat IPC: 2.61331 cumulative IPC: 2.5948 (Simulation time: 0 hr 18 min 13 sec) 
Heartbeat CPU 0 instructions: 390000002 cycles: 123400575 heartbeat IPC: 2.60523 cumulative IPC: 2.59535 (Simulation time: 0 hr 18 min 42 sec) 
Heartbeat CPU 0 instructions: 400000001 cycles: 132341427 heartbeat IPC: 1.11846 cumulative IPC: 2.43461 (Simulation time: 0 hr 19 min 40 sec) 
Heartbeat CPU 0 instructions: 410000003 cycles: 135924852 heartbeat IPC: 2.79063 cumulative IPC: 2.44949 (Simulation time: 0 hr 20 min 28 sec) 
Heartbeat CPU 0 instructions: 420000002 cycles: 139932325 heartbeat IPC: 2.49534 cumulative IPC: 2.45154 (Simulation time: 0 hr 21 min 10 sec) 
Heartbeat CPU 0 instructions: 430000001 cycles: 144074436 heartbeat IPC: 2.41423 cumulative IPC: 2.44989 (Simulation time: 0 hr 21 min 42 sec) 
Heartbeat CPU 0 instructions: 440000001 cycles: 147675091 heartbeat IPC: 2.77727 cumulative IPC: 2.46198 (Simulation time: 0 hr 22 min 12 sec) 
Heartbeat CPU 0 instructions: 450000001 cycles: 151235030 heartbeat IPC: 2.80904 cumulative IPC: 2.47421 (Simulation time: 0 hr 22 min 42 sec) 
Heartbeat CPU 0 instructions: 460000004 cycles: 154845363 heartbeat IPC: 2.76983 cumulative IPC: 2.48441 (Simulation time: 0 hr 23 min 12 sec) 
Heartbeat CPU 0 instructions: 470000000 cycles: 158476692 heartbeat IPC: 2.75381 cumulative IPC: 2.49344 (Simulation time: 0 hr 23 min 42 sec) 
Heartbeat CPU 0 instructions: 480000002 cycles: 162081430 heartbeat IPC: 2.77413 cumulative IPC: 2.50249 (Simulation time: 0 hr 24 min 13 sec) 
Heartbeat CPU 0 instructions: 490000003 cycles: 165711684 heartbeat IPC: 2.75463 cumulative IPC: 2.51041 (Simulation time: 0 hr 24 min 43 sec) 
Heartbeat CPU 0 instructions: 500000002 cycles: 169326297 heartbeat IPC: 2.76655 cumulative IPC: 2.51818 (Simulation time: 0 hr 25 min 14 sec) 
Heartbeat CPU 0 instructions: 510000004 cycles: 172921704 heartbeat IPC: 2.78133 cumulative IPC: 2.52589 (Simulation time: 0 hr 25 min 44 sec) 
Heartbeat CPU 0 instructions: 520000003 cycles: 176491150 heartbeat IPC: 2.80155 cumulative IPC: 2.53368 (Simulation time: 0 hr 26 min 14 sec) 
Heartbeat CPU 0 instructions: 530000003 cycles: 180074536 heartbeat IPC: 2.79066 cumulative IPC: 2.54077 (Simulation time: 0 hr 26 min 44 sec) 
Heartbeat CPU 0 instructions: 540000004 cycles: 183664683 heartbeat IPC: 2.7854 cumulative IPC: 2.54735 (Simulation time: 0 hr 27 min 15 sec) 
Heartbeat CPU 0 instructions: 550000001 cycles: 187168254 heartbeat IPC: 2.85423 cumulative IPC: 2.5552 (Simulation time: 0 hr 27 min 45 sec) 
Heartbeat CPU 0 instructions: 560000000 cycles: 190713050 heartbeat IPC: 2.82104 cumulative IPC: 2.56191 (Simulation time: 0 hr 28 min 15 sec) 
Heartbeat CPU 0 instructions: 570000004 cycles: 199284473 heartbeat IPC: 1.16667 cumulative IPC: 2.48169 (Simulation time: 0 hr 29 min 16 sec) 
Heartbeat CPU 0 instructions: 580000004 cycles: 202989178 heartbeat IPC: 2.69927 cumulative IPC: 2.48697 (Simulation time: 0 hr 30 min 14 sec) 
Heartbeat CPU 0 instructions: 590000004 cycles: 207128956 heartbeat IPC: 2.41559 cumulative IPC: 2.48509 (Simulation time: 0 hr 30 min 44 sec) 
Heartbeat CPU 0 instructions: 600000003 cycles: 210946994 heartbeat IPC: 2.61915 cumulative IPC: 2.48827 (Simulation time: 0 hr 31 min 16 sec) 
Heartbeat CPU 0 instructions: 610000000 cycles: 214824401 heartbeat IPC: 2.57904 cumulative IPC: 2.49041 (Simulation time: 0 hr 31 min 50 sec) 
Heartbeat CPU 0 instructions: 620000003 cycles: 218673228 heartbeat IPC: 2.5982 cumulative IPC: 2.49287 (Simulation time: 0 hr 32 min 23 sec) 
Heartbeat CPU 0 instructions: 630000003 cycles: 222520124 heartbeat IPC: 2.5995 cumulative IPC: 2.49525 (Simulation time: 0 hr 32 min 56 sec) 
Heartbeat CPU 0 instructions: 640000002 cycles: 226380579 heartbeat IPC: 2.59037 cumulative IPC: 2.49733 (Simulation time: 0 hr 33 min 28 sec) 
Heartbeat CPU 0 instructions: 650000002 cycles: 230209834 heartbeat IPC: 2.61147 cumulative IPC: 2.49976 (Simulation time: 0 hr 34 min 1 sec) 
Heartbeat CPU 0 instructions: 660000000 cycles: 234003940 heartbeat IPC: 2.63567 cumulative IPC: 2.50257 (Simulation time: 0 hr 34 min 34 sec) 
Heartbeat CPU 0 instructions: 670000001 cycles: 242427121 heartbeat IPC: 1.1872 cumulative IPC: 2.44493 (Simulation time: 0 hr 35 min 42 sec) 
Heartbeat CPU 0 instructions: 680000002 cycles: 246335387 heartbeat IPC: 2.55868 cumulative IPC: 2.4472 (Simulation time: 0 hr 36 min 32 sec) 
Heartbeat CPU 0 instructions: 690000000 cycles: 250403024 heartbeat IPC: 2.45843 cumulative IPC: 2.44743 (Simulation time: 0 hr 37 min 3 sec) 
Heartbeat CPU 0 instructions: 700000000 cycles: 254240730 heartbeat IPC: 2.60572 cumulative IPC: 2.4504 (Simulation time: 0 hr 37 min 36 sec) 
Heartbeat CPU 0 instructions: 710000002 cycles: 258092203 heartbeat IPC: 2.59641 cumulative IPC: 2.45311 (Simulation time: 0 hr 38 min 9 sec) 
Heartbeat CPU 0 instructions: 720000001 cycles: 261939967 heartbeat IPC: 2.59891 cumulative IPC: 2.45576 (Simulation time: 0 hr 38 min 42 sec) 
Heartbeat CPU 0 instructions: 730000000 cycles: 265794998 heartbeat IPC: 2.59401 cumulative IPC: 2.45823 (Simulation time: 0 hr 39 min 14 sec) 
Heartbeat CPU 0 instructions: 740000003 cycles: 269635338 heartbeat IPC: 2.60394 cumulative IPC: 2.46078 (Simulation time: 0 hr 39 min 47 sec) 
Heartbeat CPU 0 instructions: 750000001 cycles: 273475848 heartbeat IPC: 2.60382 cumulative IPC: 2.46324 (Simulation time: 0 hr 40 min 20 sec) 
Heartbeat CPU 0 instructions: 760000000 cycles: 281752465 heartbeat IPC: 1.20822 cumulative IPC: 2.41838 (Simulation time: 0 hr 41 min 16 sec) 
Heartbeat CPU 0 instructions: 770000000 cycles: 285286208 heartbeat IPC: 2.82986 cumulative IPC: 2.42457 (Simulation time: 0 hr 42 min 8 sec) 
Heartbeat CPU 0 instructions: 780000003 cycles: 289438854 heartbeat IPC: 2.4081 cumulative IPC: 2.42428 (Simulation time: 0 hr 42 min 47 sec) 
Heartbeat CPU 0 instructions: 790000000 cycles: 293179801 heartbeat IPC: 2.67312 cumulative IPC: 2.42811 (Simulation time: 0 hr 43 min 15 sec) 
Heartbeat CPU 0 instructions: 800000002 cycles: 296928463 heartbeat IPC: 2.66762 cumulative IPC: 2.43175 (Simulation time: 0 hr 43 min 42 sec) 
Heartbeat CPU 0 instructions: 810000004 cycles: 300677993 heartbeat IPC: 2.667 cumulative IPC: 2.43527 (Simulation time: 0 hr 44 min 10 sec) 
Heartbeat CPU 0 instructions: 820000000 cycles: 304430205 heartbeat IPC: 2.66509 cumulative IPC: 2.43866 (Simulation time: 0 hr 44 min 37 sec) 
Heartbeat CPU 0 instructions: 830000000 cycles: 308176711 heartbeat IPC: 2.66915 cumulative IPC: 2.44201 (Simulation time: 0 hr 45 min 5 sec) 
Heartbeat CPU 0 instructions: 840000003 cycles: 311936656 heartbeat IPC: 2.65961 cumulative IPC: 2.44514 (Simulation time: 0 hr 45 min 32 sec) 
Heartbeat CPU 0 instructions: 850000000 cycles: 315657013 heartbeat IPC: 2.68791 cumulative IPC: 2.44854 (Simulation time: 0 hr 46 min 0 sec) 
Heartbeat CPU 0 instructions: 860000000 cycles: 319385698 heartbeat IPC: 2.68191 cumulative IPC: 2.45177 (Simulation time: 0 hr 46 min 27 sec) 
Heartbeat CPU 0 instructions: 870000004 cycles: 323088759 heartbeat IPC: 2.70047 cumulative IPC: 2.45515 (Simulation time: 0 hr 46 min 54 sec) 
Heartbeat CPU 0 instructions: 880000001 cycles: 326892030 heartbeat IPC: 2.62931 cumulative IPC: 2.45754 (Simulation time: 0 hr 47 min 22 sec) 
Heartbeat CPU 0 instructions: 890000001 cycles: 330722326 heartbeat IPC: 2.61076 cumulative IPC: 2.45963 (Simulation time: 0 hr 47 min 49 sec) 
Heartbeat CPU 0 instructions: 900000000 cycles: 334556784 heartbeat IPC: 2.60793 cumulative IPC: 2.46163 (Simulation time: 0 hr 48 min 16 sec) 
Heartbeat CPU 0 instructions: 910000001 cycles: 338394240 heartbeat IPC: 2.60589 cumulative IPC: 2.46355 (Simulation time: 0 hr 48 min 44 sec) 
Heartbeat CPU 0 instructions: 920000000 cycles: 342246299 heartbeat IPC: 2.59601 cumulative IPC: 2.4653 (Simulation time: 0 hr 49 min 11 sec) 
Heartbeat CPU 0 instructions: 930000000 cycles: 346089718 heartbeat IPC: 2.60185 cumulative IPC: 2.46707 (Simulation time: 0 hr 49 min 38 sec) 
Heartbeat CPU 0 instructions: 940000003 cycles: 349915182 heartbeat IPC: 2.61406 cumulative IPC: 2.46895 (Simulation time: 0 hr 50 min 5 sec) 
Heartbeat CPU 0 instructions: 950000002 cycles: 353748746 heartbeat IPC: 2.60854 cumulative IPC: 2.47071 (Simulation time: 0 hr 50 min 33 sec) 
Heartbeat CPU 0 instructions: 960000002 cycles: 357585929 heartbeat IPC: 2.60608 cumulative IPC: 2.4724 (Simulation time: 0 hr 51 min 0 sec) 
Heartbeat CPU 0 instructions: 970000002 cycles: 361414268 heartbeat IPC: 2.6121 cumulative IPC: 2.47412 (Simulation time: 0 hr 51 min 27 sec) 
Heartbeat CPU 0 instructions: 980000003 cycles: 365196701 heartbeat IPC: 2.6438 cumulative IPC: 2.47616 (Simulation time: 0 hr 51 min 54 sec) 
Heartbeat CPU 0 instructions: 990000000 cycles: 369012239 heartbeat IPC: 2.62086 cumulative IPC: 2.47789 (Simulation time: 0 hr 52 min 22 sec) 
Heartbeat CPU 0 instructions: 1000000003 cycles: 372822130 heartbeat IPC: 2.62475 cumulative IPC: 2.47963 (Simulation time: 0 hr 52 min 49 sec) 
Heartbeat CPU 0 instructions: 1010000000 cycles: 376593112 heartbeat IPC: 2.65183 cumulative IPC: 2.48161 (Simulation time: 0 hr 53 min 16 sec) 
Heartbeat CPU 0 instructions: 1020000002 cycles: 380064055 heartbeat IPC: 2.88106 cumulative IPC: 2.48582 (Simulation time: 0 hr 53 min 44 sec) 
Heartbeat CPU 0 instructions: 1030000004 cycles: 383315059 heartbeat IPC: 3.07597 cumulative IPC: 2.49158 (Simulation time: 0 hr 54 min 12 sec) 
Heartbeat CPU 0 instructions: 1040000004 cycles: 386564247 heartbeat IPC: 3.07769 cumulative IPC: 2.49724 (Simulation time: 0 hr 54 min 40 sec) 
Heartbeat CPU 0 instructions: 1050000000 cycles: 389813001 heartbeat IPC: 3.0781 cumulative IPC: 2.5028 (Simulation time: 0 hr 55 min 8 sec) 
Heartbeat CPU 0 instructions: 1060000000 cycles: 393643232 heartbeat IPC: 2.61081 cumulative IPC: 2.504 (Simulation time: 0 hr 55 min 36 sec) 
Heartbeat CPU 0 instructions: 1070000000 cycles: 397649901 heartbeat IPC: 2.49584 cumulative IPC: 2.50391 (Simulation time: 0 hr 56 min 3 sec) 
Heartbeat CPU 0 instructions: 1080000002 cycles: 401669945 heartbeat IPC: 2.48754 cumulative IPC: 2.50372 (Simulation time: 0 hr 56 min 31 sec) 
Heartbeat CPU 0 instructions: 1090000002 cycles: 405682000 heartbeat IPC: 2.49249 cumulative IPC: 2.50359 (Simulation time: 0 hr 56 min 58 sec) 
Heartbeat CPU 0 instructions: 1100000003 cycles: 409672108 heartbeat IPC: 2.5062 cumulative IPC: 2.50362 (Simulation time: 0 hr 57 min 26 sec) 
Heartbeat CPU 0 instructions: 1110000001 cycles: 413456766 heartbeat IPC: 2.64225 cumulative IPC: 2.50506 (Simulation time: 0 hr 57 min 53 sec) 
Heartbeat CPU 0 instructions: 1120000000 cycles: 417203423 heartbeat IPC: 2.66905 cumulative IPC: 2.50674 (Simulation time: 0 hr 58 min 20 sec) 
Heartbeat CPU 0 instructions: 1130000001 cycles: 420949312 heartbeat IPC: 2.66959 cumulative IPC: 2.50838 (Simulation time: 0 hr 58 min 48 sec) 
Heartbeat CPU 0 instructions: 1140000002 cycles: 424702504 heartbeat IPC: 2.6644 cumulative IPC: 2.50995 (Simulation time: 0 hr 59 min 15 sec) 
Heartbeat CPU 0 instructions: 1150000004 cycles: 428424322 heartbeat IPC: 2.68686 cumulative IPC: 2.51169 (Simulation time: 0 hr 59 min 43 sec) 
Heartbeat CPU 0 instructions: 1160000003 cycles: 432160679 heartbeat IPC: 2.6764 cumulative IPC: 2.5133 (Simulation time: 1 hr 0 min 10 sec) 
Heartbeat CPU 0 instructions: 1170000000 cycles: 435879368 heartbeat IPC: 2.68912 cumulative IPC: 2.515 (Simulation time: 1 hr 0 min 37 sec) 
Heartbeat CPU 0 instructions: 1180000002 cycles: 439592817 heartbeat IPC: 2.69291 cumulative IPC: 2.51669 (Simulation time: 1 hr 1 min 5 sec) 
Heartbeat CPU 0 instructions: 1190000003 cycles: 443274521 heartbeat IPC: 2.71613 cumulative IPC: 2.51856 (Simulation time: 1 hr 1 min 32 sec) 
Heartbeat CPU 0 instructions: 1200000000 cycles: 446969211 heartbeat IPC: 2.70659 cumulative IPC: 2.52031 (Simulation time: 1 hr 2 min 0 sec) 
Finished CPU 0 instructions: 1000000003 cycles: 396776494 cumulative IPC: 2.52031 (Simulation time: 1 hr 2 min 0 sec) 

ChampSim completed all CPUs

Region of Interest Statistics

CPU 0 cumulative IPC: 2.52031 instructions: 1000000003 cycles: 396776494
cpu0_DTLB TOTAL     ACCESS:  122371966  HIT:  121305757  MISS:    1066209
cpu0_DTLB LOAD      ACCESS:   86360649  HIT:   85674601  MISS:     686048
cpu0_DTLB RFO       ACCESS:   36011317  HIT:   35631156  MISS:     380161
cpu0_DTLB PREFETCH  ACCESS:          0  HIT:          0  MISS:          0
cpu0_DTLB WRITEBACK ACCESS:          0  HIT:          0  MISS:          0
cpu0_DTLB TRANSLATION ACCESS:          0  HIT:          0  MISS:          0
cpu0_DTLB PREFETCH  REQUESTED:          0  ISSUED:          0  USEFUL:          0  USELESS:          0
cpu0_DTLB AVERAGE MISS LATENCY: 12.4117 cycles
cpu0_ITLB TOTAL     ACCESS:   64446714  HIT:   64445247  MISS:       1467
cpu0_ITLB LOAD      ACCESS:   64446714  HIT:   64445247  MISS:       1467
cpu0_ITLB RFO       ACCESS:          0  HIT:          0  MISS:          0
cpu0_ITLB PREFETCH  ACCESS:          0  HIT:          0  MISS:          0
cpu0_ITLB WRITEBACK ACCESS:          0  HIT:          0  MISS:          0
cpu0_ITLB TRANSLATION ACCESS:          0  HIT:          0  MISS:          0
cpu0_ITLB PREFETCH  REQUESTED:          0  ISSUED:          0  USEFUL:          0  USELESS:          0
cpu0_ITLB AVERAGE MISS LATENCY: 18.713 cycles
cpu0_L1I TOTAL     ACCESS:   26414998  HIT:   24786890  MISS:    1628108
cpu0_L1I LOAD      ACCESS:   26414998  HIT:   24786890  MISS:    1628108
cpu0_L1I RFO       ACCESS:          0  HIT:          0  MISS:          0
cpu0_L1I PREFETCH  ACCESS:          0  HIT:          0  MISS:          0
cpu0_L1I WRITEBACK ACCESS:          0  HIT:          0  MISS:          0
cpu0_L1I TRANSLATION ACCESS:          0  HIT:          0  MISS:          0
cpu0_L1I PREFETCH  REQUESTED:          0  ISSUED:          0  USEFUL:          0  USELESS:          0
cpu0_L1I AVERAGE MISS LATENCY: 12.5101 cycles
cpu0_STLB TOTAL     ACCESS:    1067676  HIT:    1060016  MISS:       7660
cpu0_STLB LOAD      ACCESS:     687515  HIT:     684304  MISS:       3211
cpu0_STLB RFO       ACCESS:     380161  HIT:     375712  MISS:       4449
cpu0_STLB PREFETCH  ACCESS:          0  HIT:          0  MISS:          0
cpu0_STLB WRITEBACK ACCESS:          0  HIT:          0  MISS:          0
cpu0_STLB TRANSLATION ACCESS:          0  HIT:          0  MISS:          0
cpu0_STLB PREFETCH  REQUESTED:          0  ISSUED:          0  USEFUL:          0  USELESS:          0
cpu0_STLB AVERAGE MISS LATENCY: 189.728 cycles
cpu0_L1D TOTAL     ACCESS:  148276420  HIT:  146409006  MISS:    1867414
cpu0_L1D LOAD      ACCESS:   75377116  HIT:   74058437  MISS:    1318679
cpu0_L1D RFO       ACCESS:   72892476  HIT:   72344535  MISS:     547941
cpu0_L1D PREFETCH  ACCESS:          0  HIT:          0  MISS:          0
cpu0_L1D WRITEBACK ACCESS:          0  HIT:          0  MISS:          0
cpu0_L1D TRANSLATION ACCESS:       6828  HIT:       6034  MISS:        794
cpu0_L1D PREFETCH  REQUESTED:          0  ISSUED:          0  USEFUL:          0  USELESS:          0
cpu0_L1D AVERAGE MISS LATENCY: 192.34 cycles
cpu0_L2C TOTAL     ACCESS:    7086436  HIT:    5734991  MISS:    1351445
cpu0_L2C LOAD      ACCESS:    2946760  HIT:    2660519  MISS:     286241
cpu0_L2C RFO       ACCESS:     544153  HIT:     148944  MISS:     395209
cpu0_L2C PREFETCH  ACCESS:    2935355  HIT:    2267746  MISS:     667609
cpu0_L2C WRITEBACK ACCESS:     659374  HIT:     657135  MISS:       2239
cpu0_L2C TRANSLATION ACCESS:        794  HIT:        647  MISS:        147
cpu0_L2C PREFETCH  REQUESTED:    4757574  ISSUED:    3866374  USEFUL:     787544  USELESS:      50007
cpu0_L2C AVERAGE MISS LATENCY: 318.081 cycles
LLC TOTAL     ACCESS:    2205073  HIT:    1077577  MISS:    1127496
LLC LOAD      ACCESS:     117212  HIT:      41196  MISS:      76016
LLC RFO       ACCESS:     394466  HIT:       7216  MISS:     387250
LLC PREFETCH  ACCESS:    1204833  HIT:     541960  MISS:     662873
LLC WRITEBACK ACCESS:     488415  HIT:     487126  MISS:       1289
LLC TRANSLATION ACCESS:        147  HIT:         79  MISS:         68
LLC PREFETCH  REQUESTED:          0  ISSUED:          0  USEFUL:          0  USELESS:          0
LLC AVERAGE MISS LATENCY: 623.697 cycles
Printing the final status 

DRAM Statistics
 CHANNEL 0
 RQ ROW_BUFFER_HIT:     139822  ROW_BUFFER_MISS:     986110
 DBUS AVG_CONGESTED_CYCLE:    3.96805
 WQ ROW_BUFFER_HIT:      51053  ROW_BUFFER_MISS:     440555  FULL:          0


CPU 0 Branch Prediction Accuracy: 85.7768% MPKI: 5.31698 Average ROB Occupancy at Mispredict: 105.147
Branch type MPKI
BRANCH_DIRECT_JUMP: 0.000117
BRANCH_INDIRECT: 0.000602
BRANCH_CONDITIONAL: 5.23547
BRANCH_DIRECT_CALL: 0.000215
BRANCH_INDIRECT_CALL: 0.014074
BRANCH_RETURN: 0.0665

***************** Done with 625.x264_s-18B.champsimtrace.xz using ppf-spp-dev-3, on Wed Apr 20 19:36:36 CDT 2022 ******************
