Started running file 638.imagick_s-10316B.champsimtrace.xz at time Wed Apr 20 13:38:33 CDT 2022 with prefetcher ppf-spp-dev-3

*** ChampSim Multicore Out-of-Order Simulator ***

Warmup Instructions: 200000000
Simulation Instructions: 1000000000
Number of CPUs: 1
Off-chip DRAM Size: 4 GiB Channels: 1 Width: 64-bit Data Rate: 3200 MT/s

VirtualMemory physical capacity: 8588881920 num_ppages: 2096895
VirtualMemory page size: 4096 log2_page_size: 12

CPU 0 runs /home/faculty/p/pgratz/dpc3_traces/638.imagick_s-10316B.champsimtrace.xz
CPU 0 Bimodal branch predictor
Basic BTB sets: 1024 ways: 8 indirect buffer size: 4096 RAS size: 64
cpu0_L2C PPF SPP DEV Prefetcher
Heartbeat CPU 0 instructions: 10000002 cycles: 2500064 heartbeat IPC: 3.9999 cumulative IPC: 3.9999 (Simulation time: 0 hr 0 min 26 sec) 
Heartbeat CPU 0 instructions: 20000002 cycles: 5000064 heartbeat IPC: 4 cumulative IPC: 3.99995 (Simulation time: 0 hr 0 min 52 sec) 
Heartbeat CPU 0 instructions: 30000002 cycles: 7500064 heartbeat IPC: 4 cumulative IPC: 3.99997 (Simulation time: 0 hr 1 min 19 sec) 
Heartbeat CPU 0 instructions: 40000002 cycles: 10000064 heartbeat IPC: 4 cumulative IPC: 3.99997 (Simulation time: 0 hr 1 min 45 sec) 
Heartbeat CPU 0 instructions: 50000002 cycles: 12500064 heartbeat IPC: 4 cumulative IPC: 3.99998 (Simulation time: 0 hr 2 min 11 sec) 
Heartbeat CPU 0 instructions: 60000002 cycles: 15000064 heartbeat IPC: 4 cumulative IPC: 3.99998 (Simulation time: 0 hr 2 min 37 sec) 
Heartbeat CPU 0 instructions: 70000002 cycles: 17500064 heartbeat IPC: 4 cumulative IPC: 3.99999 (Simulation time: 0 hr 3 min 3 sec) 
Heartbeat CPU 0 instructions: 80000002 cycles: 20000064 heartbeat IPC: 4 cumulative IPC: 3.99999 (Simulation time: 0 hr 3 min 29 sec) 
Heartbeat CPU 0 instructions: 90000002 cycles: 22500064 heartbeat IPC: 4 cumulative IPC: 3.99999 (Simulation time: 0 hr 3 min 56 sec) 
Heartbeat CPU 0 instructions: 100000002 cycles: 25000064 heartbeat IPC: 4 cumulative IPC: 3.99999 (Simulation time: 0 hr 4 min 22 sec) 
Heartbeat CPU 0 instructions: 110000002 cycles: 27500064 heartbeat IPC: 4 cumulative IPC: 3.99999 (Simulation time: 0 hr 4 min 48 sec) 
Heartbeat CPU 0 instructions: 120000002 cycles: 30000064 heartbeat IPC: 4 cumulative IPC: 3.99999 (Simulation time: 0 hr 5 min 14 sec) 
Heartbeat CPU 0 instructions: 130000002 cycles: 32500064 heartbeat IPC: 4 cumulative IPC: 3.99999 (Simulation time: 0 hr 5 min 40 sec) 
Heartbeat CPU 0 instructions: 140000002 cycles: 35000064 heartbeat IPC: 4 cumulative IPC: 3.99999 (Simulation time: 0 hr 6 min 6 sec) 
Heartbeat CPU 0 instructions: 150000002 cycles: 37500064 heartbeat IPC: 4 cumulative IPC: 3.99999 (Simulation time: 0 hr 6 min 33 sec) 
Heartbeat CPU 0 instructions: 160000002 cycles: 40000064 heartbeat IPC: 4 cumulative IPC: 3.99999 (Simulation time: 0 hr 6 min 59 sec) 
Heartbeat CPU 0 instructions: 170000002 cycles: 42500064 heartbeat IPC: 4 cumulative IPC: 3.99999 (Simulation time: 0 hr 7 min 25 sec) 
Heartbeat CPU 0 instructions: 180000002 cycles: 45000064 heartbeat IPC: 4 cumulative IPC: 3.99999 (Simulation time: 0 hr 7 min 51 sec) 
Heartbeat CPU 0 instructions: 190000002 cycles: 47500064 heartbeat IPC: 4 cumulative IPC: 3.99999 (Simulation time: 0 hr 8 min 17 sec) 
Heartbeat CPU 0 instructions: 200000002 cycles: 50000064 heartbeat IPC: 4 cumulative IPC: 3.99999 (Simulation time: 0 hr 8 min 44 sec) 

Warmup complete CPU 0 instructions: 200000002 cycles: 50000064 (Simulation time: 0 hr 8 min 44 sec) 

Heartbeat CPU 0 instructions: 210000000 cycles: 53415241 heartbeat IPC: 2.92811 cumulative IPC: 2.92811 (Simulation time: 0 hr 9 min 11 sec) 
Heartbeat CPU 0 instructions: 220000004 cycles: 56831963 heartbeat IPC: 2.92678 cumulative IPC: 2.92744 (Simulation time: 0 hr 9 min 39 sec) 
Heartbeat CPU 0 instructions: 230000004 cycles: 60247360 heartbeat IPC: 2.92792 cumulative IPC: 2.9276 (Simulation time: 0 hr 10 min 6 sec) 
Heartbeat CPU 0 instructions: 240000004 cycles: 63662859 heartbeat IPC: 2.92783 cumulative IPC: 2.92766 (Simulation time: 0 hr 10 min 34 sec) 
Heartbeat CPU 0 instructions: 250000000 cycles: 67078051 heartbeat IPC: 2.92809 cumulative IPC: 2.92775 (Simulation time: 0 hr 11 min 2 sec) 
Heartbeat CPU 0 instructions: 260000001 cycles: 70494981 heartbeat IPC: 2.9266 cumulative IPC: 2.92756 (Simulation time: 0 hr 11 min 29 sec) 
Heartbeat CPU 0 instructions: 270000001 cycles: 73910276 heartbeat IPC: 2.928 cumulative IPC: 2.92762 (Simulation time: 0 hr 11 min 57 sec) 
Heartbeat CPU 0 instructions: 280000002 cycles: 77325508 heartbeat IPC: 2.92806 cumulative IPC: 2.92767 (Simulation time: 0 hr 12 min 24 sec) 
Heartbeat CPU 0 instructions: 290000000 cycles: 80741460 heartbeat IPC: 2.92744 cumulative IPC: 2.92765 (Simulation time: 0 hr 12 min 52 sec) 
Heartbeat CPU 0 instructions: 300000002 cycles: 84157000 heartbeat IPC: 2.9278 cumulative IPC: 2.92766 (Simulation time: 0 hr 13 min 19 sec) 
Heartbeat CPU 0 instructions: 310000000 cycles: 87571956 heartbeat IPC: 2.92829 cumulative IPC: 2.92772 (Simulation time: 0 hr 13 min 47 sec) 
Heartbeat CPU 0 instructions: 320000002 cycles: 90987171 heartbeat IPC: 2.92807 cumulative IPC: 2.92775 (Simulation time: 0 hr 14 min 14 sec) 
Heartbeat CPU 0 instructions: 330000002 cycles: 94402914 heartbeat IPC: 2.92762 cumulative IPC: 2.92774 (Simulation time: 0 hr 14 min 42 sec) 
Heartbeat CPU 0 instructions: 340000002 cycles: 97817962 heartbeat IPC: 2.92822 cumulative IPC: 2.92777 (Simulation time: 0 hr 15 min 10 sec) 
Heartbeat CPU 0 instructions: 350000003 cycles: 101232967 heartbeat IPC: 2.92825 cumulative IPC: 2.92781 (Simulation time: 0 hr 15 min 37 sec) 
Heartbeat CPU 0 instructions: 360000002 cycles: 104648167 heartbeat IPC: 2.92809 cumulative IPC: 2.92782 (Simulation time: 0 hr 16 min 5 sec) 
Heartbeat CPU 0 instructions: 370000003 cycles: 108063889 heartbeat IPC: 2.92764 cumulative IPC: 2.92781 (Simulation time: 0 hr 16 min 32 sec) 
Heartbeat CPU 0 instructions: 380000004 cycles: 111478328 heartbeat IPC: 2.92874 cumulative IPC: 2.92786 (Simulation time: 0 hr 17 min 0 sec) 
Heartbeat CPU 0 instructions: 390000002 cycles: 114894444 heartbeat IPC: 2.9273 cumulative IPC: 2.92783 (Simulation time: 0 hr 17 min 27 sec) 
Heartbeat CPU 0 instructions: 400000001 cycles: 118309157 heartbeat IPC: 2.9285 cumulative IPC: 2.92787 (Simulation time: 0 hr 17 min 55 sec) 
Heartbeat CPU 0 instructions: 410000004 cycles: 121725010 heartbeat IPC: 2.92753 cumulative IPC: 2.92785 (Simulation time: 0 hr 18 min 22 sec) 
Heartbeat CPU 0 instructions: 420000003 cycles: 125139318 heartbeat IPC: 2.92885 cumulative IPC: 2.9279 (Simulation time: 0 hr 18 min 50 sec) 
Heartbeat CPU 0 instructions: 430000001 cycles: 128555921 heartbeat IPC: 2.92688 cumulative IPC: 2.92785 (Simulation time: 0 hr 19 min 17 sec) 
Heartbeat CPU 0 instructions: 440000003 cycles: 131970887 heartbeat IPC: 2.92829 cumulative IPC: 2.92787 (Simulation time: 0 hr 19 min 45 sec) 
Heartbeat CPU 0 instructions: 450000002 cycles: 135387094 heartbeat IPC: 2.92722 cumulative IPC: 2.92785 (Simulation time: 0 hr 20 min 12 sec) 
Heartbeat CPU 0 instructions: 460000002 cycles: 138801928 heartbeat IPC: 2.9284 cumulative IPC: 2.92787 (Simulation time: 0 hr 20 min 40 sec) 
Heartbeat CPU 0 instructions: 470000001 cycles: 142219342 heartbeat IPC: 2.92619 cumulative IPC: 2.9278 (Simulation time: 0 hr 21 min 8 sec) 
Heartbeat CPU 0 instructions: 480000001 cycles: 145634989 heartbeat IPC: 2.9277 cumulative IPC: 2.9278 (Simulation time: 0 hr 21 min 35 sec) 
Heartbeat CPU 0 instructions: 490000004 cycles: 149052503 heartbeat IPC: 2.9261 cumulative IPC: 2.92774 (Simulation time: 0 hr 22 min 3 sec) 
Heartbeat CPU 0 instructions: 500000003 cycles: 152468476 heartbeat IPC: 2.92742 cumulative IPC: 2.92773 (Simulation time: 0 hr 22 min 30 sec) 
Heartbeat CPU 0 instructions: 510000000 cycles: 155886689 heartbeat IPC: 2.9255 cumulative IPC: 2.92766 (Simulation time: 0 hr 22 min 58 sec) 
Heartbeat CPU 0 instructions: 520000000 cycles: 159303157 heartbeat IPC: 2.927 cumulative IPC: 2.92764 (Simulation time: 0 hr 23 min 25 sec) 
Heartbeat CPU 0 instructions: 530000001 cycles: 162721661 heartbeat IPC: 2.92526 cumulative IPC: 2.92757 (Simulation time: 0 hr 23 min 53 sec) 
Heartbeat CPU 0 instructions: 540000003 cycles: 166138094 heartbeat IPC: 2.92703 cumulative IPC: 2.92755 (Simulation time: 0 hr 24 min 21 sec) 
Heartbeat CPU 0 instructions: 550000002 cycles: 169555237 heartbeat IPC: 2.92642 cumulative IPC: 2.92752 (Simulation time: 0 hr 24 min 48 sec) 
Heartbeat CPU 0 instructions: 560000002 cycles: 172971904 heartbeat IPC: 2.92683 cumulative IPC: 2.9275 (Simulation time: 0 hr 25 min 16 sec) 
Heartbeat CPU 0 instructions: 570000000 cycles: 176389808 heartbeat IPC: 2.92577 cumulative IPC: 2.92745 (Simulation time: 0 hr 25 min 44 sec) 
Heartbeat CPU 0 instructions: 580000000 cycles: 179806120 heartbeat IPC: 2.92713 cumulative IPC: 2.92744 (Simulation time: 0 hr 26 min 11 sec) 
Heartbeat CPU 0 instructions: 590000000 cycles: 183223302 heartbeat IPC: 2.92639 cumulative IPC: 2.92742 (Simulation time: 0 hr 26 min 39 sec) 
Heartbeat CPU 0 instructions: 600000002 cycles: 186639381 heartbeat IPC: 2.92733 cumulative IPC: 2.92742 (Simulation time: 0 hr 27 min 7 sec) 
Heartbeat CPU 0 instructions: 610000001 cycles: 190057084 heartbeat IPC: 2.92594 cumulative IPC: 2.92738 (Simulation time: 0 hr 27 min 34 sec) 
Heartbeat CPU 0 instructions: 620000003 cycles: 193473135 heartbeat IPC: 2.92736 cumulative IPC: 2.92738 (Simulation time: 0 hr 28 min 2 sec) 
Heartbeat CPU 0 instructions: 630000001 cycles: 196890444 heartbeat IPC: 2.92628 cumulative IPC: 2.92735 (Simulation time: 0 hr 28 min 29 sec) 
Heartbeat CPU 0 instructions: 640000001 cycles: 200306705 heartbeat IPC: 2.92718 cumulative IPC: 2.92735 (Simulation time: 0 hr 28 min 57 sec) 
Heartbeat CPU 0 instructions: 650000004 cycles: 203724222 heartbeat IPC: 2.9261 cumulative IPC: 2.92732 (Simulation time: 0 hr 29 min 25 sec) 
Heartbeat CPU 0 instructions: 660000003 cycles: 207140415 heartbeat IPC: 2.92723 cumulative IPC: 2.92732 (Simulation time: 0 hr 29 min 52 sec) 
Heartbeat CPU 0 instructions: 670000004 cycles: 210557339 heartbeat IPC: 2.92661 cumulative IPC: 2.9273 (Simulation time: 0 hr 30 min 20 sec) 
Heartbeat CPU 0 instructions: 680000001 cycles: 213972567 heartbeat IPC: 2.92806 cumulative IPC: 2.92732 (Simulation time: 0 hr 30 min 48 sec) 
Heartbeat CPU 0 instructions: 690000000 cycles: 217387914 heartbeat IPC: 2.92796 cumulative IPC: 2.92733 (Simulation time: 0 hr 31 min 15 sec) 
Heartbeat CPU 0 instructions: 700000004 cycles: 220802893 heartbeat IPC: 2.92828 cumulative IPC: 2.92735 (Simulation time: 0 hr 31 min 43 sec) 
Heartbeat CPU 0 instructions: 710000000 cycles: 224218476 heartbeat IPC: 2.92776 cumulative IPC: 2.92736 (Simulation time: 0 hr 32 min 10 sec) 
Heartbeat CPU 0 instructions: 720000000 cycles: 227633366 heartbeat IPC: 2.92835 cumulative IPC: 2.92738 (Simulation time: 0 hr 32 min 38 sec) 
Heartbeat CPU 0 instructions: 730000000 cycles: 231048787 heartbeat IPC: 2.9279 cumulative IPC: 2.92739 (Simulation time: 0 hr 33 min 6 sec) 
Heartbeat CPU 0 instructions: 740000004 cycles: 234464598 heartbeat IPC: 2.92756 cumulative IPC: 2.92739 (Simulation time: 0 hr 33 min 33 sec) 
Heartbeat CPU 0 instructions: 750000004 cycles: 237879206 heartbeat IPC: 2.92859 cumulative IPC: 2.92741 (Simulation time: 0 hr 34 min 1 sec) 
Heartbeat CPU 0 instructions: 760000003 cycles: 241295295 heartbeat IPC: 2.92732 cumulative IPC: 2.92741 (Simulation time: 0 hr 34 min 29 sec) 
Heartbeat CPU 0 instructions: 770000003 cycles: 244711463 heartbeat IPC: 2.92726 cumulative IPC: 2.92741 (Simulation time: 0 hr 34 min 56 sec) 
Heartbeat CPU 0 instructions: 780000002 cycles: 248127953 heartbeat IPC: 2.92698 cumulative IPC: 2.9274 (Simulation time: 0 hr 35 min 24 sec) 
Heartbeat CPU 0 instructions: 790000002 cycles: 251543170 heartbeat IPC: 2.92807 cumulative IPC: 2.92741 (Simulation time: 0 hr 35 min 51 sec) 
Heartbeat CPU 0 instructions: 800000001 cycles: 254959298 heartbeat IPC: 2.92729 cumulative IPC: 2.92741 (Simulation time: 0 hr 36 min 19 sec) 
Heartbeat CPU 0 instructions: 810000004 cycles: 258373901 heartbeat IPC: 2.9286 cumulative IPC: 2.92743 (Simulation time: 0 hr 36 min 47 sec) 
Heartbeat CPU 0 instructions: 820000003 cycles: 261790034 heartbeat IPC: 2.92729 cumulative IPC: 2.92743 (Simulation time: 0 hr 37 min 14 sec) 
Heartbeat CPU 0 instructions: 830000001 cycles: 265204187 heartbeat IPC: 2.92898 cumulative IPC: 2.92745 (Simulation time: 0 hr 37 min 42 sec) 
Heartbeat CPU 0 instructions: 840000003 cycles: 268621045 heartbeat IPC: 2.92667 cumulative IPC: 2.92744 (Simulation time: 0 hr 38 min 10 sec) 
Heartbeat CPU 0 instructions: 850000004 cycles: 272035476 heartbeat IPC: 2.92875 cumulative IPC: 2.92746 (Simulation time: 0 hr 38 min 37 sec) 
Heartbeat CPU 0 instructions: 860000003 cycles: 275451902 heartbeat IPC: 2.92704 cumulative IPC: 2.92745 (Simulation time: 0 hr 39 min 5 sec) 
Heartbeat CPU 0 instructions: 870000003 cycles: 278866668 heartbeat IPC: 2.92846 cumulative IPC: 2.92747 (Simulation time: 0 hr 39 min 32 sec) 
Heartbeat CPU 0 instructions: 880000003 cycles: 282283318 heartbeat IPC: 2.92684 cumulative IPC: 2.92746 (Simulation time: 0 hr 40 min 0 sec) 
Heartbeat CPU 0 instructions: 890000002 cycles: 285698136 heartbeat IPC: 2.92841 cumulative IPC: 2.92747 (Simulation time: 0 hr 40 min 28 sec) 
Heartbeat CPU 0 instructions: 900000001 cycles: 289114524 heartbeat IPC: 2.92707 cumulative IPC: 2.92747 (Simulation time: 0 hr 40 min 55 sec) 
Heartbeat CPU 0 instructions: 910000000 cycles: 292529842 heartbeat IPC: 2.92798 cumulative IPC: 2.92748 (Simulation time: 0 hr 41 min 23 sec) 
Heartbeat CPU 0 instructions: 920000004 cycles: 295945908 heartbeat IPC: 2.92735 cumulative IPC: 2.92747 (Simulation time: 0 hr 41 min 50 sec) 
Heartbeat CPU 0 instructions: 930000000 cycles: 299360029 heartbeat IPC: 2.92901 cumulative IPC: 2.92749 (Simulation time: 0 hr 42 min 18 sec) 
Heartbeat CPU 0 instructions: 940000004 cycles: 302776098 heartbeat IPC: 2.92734 cumulative IPC: 2.92749 (Simulation time: 0 hr 42 min 46 sec) 
Heartbeat CPU 0 instructions: 950000004 cycles: 306190928 heartbeat IPC: 2.9284 cumulative IPC: 2.9275 (Simulation time: 0 hr 43 min 13 sec) 
Heartbeat CPU 0 instructions: 960000003 cycles: 309607041 heartbeat IPC: 2.9273 cumulative IPC: 2.9275 (Simulation time: 0 hr 43 min 41 sec) 
Heartbeat CPU 0 instructions: 970000000 cycles: 313021484 heartbeat IPC: 2.92873 cumulative IPC: 2.92752 (Simulation time: 0 hr 44 min 8 sec) 
Heartbeat CPU 0 instructions: 980000004 cycles: 316437693 heartbeat IPC: 2.92722 cumulative IPC: 2.92751 (Simulation time: 0 hr 44 min 36 sec) 
Heartbeat CPU 0 instructions: 990000002 cycles: 319851776 heartbeat IPC: 2.92904 cumulative IPC: 2.92753 (Simulation time: 0 hr 45 min 3 sec) 
Heartbeat CPU 0 instructions: 1000000001 cycles: 323267560 heartbeat IPC: 2.92759 cumulative IPC: 2.92753 (Simulation time: 0 hr 45 min 31 sec) 
Heartbeat CPU 0 instructions: 1010000003 cycles: 326682810 heartbeat IPC: 2.92804 cumulative IPC: 2.92754 (Simulation time: 0 hr 45 min 59 sec) 
Heartbeat CPU 0 instructions: 1020000003 cycles: 330099065 heartbeat IPC: 2.92718 cumulative IPC: 2.92754 (Simulation time: 0 hr 46 min 26 sec) 
Heartbeat CPU 0 instructions: 1030000001 cycles: 333513334 heartbeat IPC: 2.92888 cumulative IPC: 2.92755 (Simulation time: 0 hr 46 min 54 sec) 
Heartbeat CPU 0 instructions: 1040000001 cycles: 336928919 heartbeat IPC: 2.92776 cumulative IPC: 2.92756 (Simulation time: 0 hr 47 min 22 sec) 
Heartbeat CPU 0 instructions: 1050000004 cycles: 340343603 heartbeat IPC: 2.92853 cumulative IPC: 2.92757 (Simulation time: 0 hr 47 min 49 sec) 
Heartbeat CPU 0 instructions: 1060000004 cycles: 343759675 heartbeat IPC: 2.92734 cumulative IPC: 2.92756 (Simulation time: 0 hr 48 min 17 sec) 
Heartbeat CPU 0 instructions: 1070000000 cycles: 347175171 heartbeat IPC: 2.92783 cumulative IPC: 2.92757 (Simulation time: 0 hr 48 min 45 sec) 
Heartbeat CPU 0 instructions: 1080000004 cycles: 350590969 heartbeat IPC: 2.92757 cumulative IPC: 2.92757 (Simulation time: 0 hr 49 min 12 sec) 
Heartbeat CPU 0 instructions: 1090000004 cycles: 354006125 heartbeat IPC: 2.92812 cumulative IPC: 2.92757 (Simulation time: 0 hr 49 min 40 sec) 
Heartbeat CPU 0 instructions: 1100000001 cycles: 357420921 heartbeat IPC: 2.92843 cumulative IPC: 2.92758 (Simulation time: 0 hr 50 min 8 sec) 
Heartbeat CPU 0 instructions: 1110000003 cycles: 360836346 heartbeat IPC: 2.92789 cumulative IPC: 2.92759 (Simulation time: 0 hr 50 min 36 sec) 
Heartbeat CPU 0 instructions: 1120000000 cycles: 364251746 heartbeat IPC: 2.92791 cumulative IPC: 2.92759 (Simulation time: 0 hr 51 min 3 sec) 
Heartbeat CPU 0 instructions: 1130000004 cycles: 367667051 heartbeat IPC: 2.928 cumulative IPC: 2.92759 (Simulation time: 0 hr 51 min 31 sec) 
Heartbeat CPU 0 instructions: 1140000001 cycles: 371082210 heartbeat IPC: 2.92812 cumulative IPC: 2.9276 (Simulation time: 0 hr 51 min 59 sec) 
Heartbeat CPU 0 instructions: 1150000003 cycles: 374497981 heartbeat IPC: 2.9276 cumulative IPC: 2.9276 (Simulation time: 0 hr 52 min 26 sec) 
Heartbeat CPU 0 instructions: 1160000000 cycles: 377912467 heartbeat IPC: 2.9287 cumulative IPC: 2.92761 (Simulation time: 0 hr 52 min 54 sec) 
Heartbeat CPU 0 instructions: 1170000004 cycles: 381327565 heartbeat IPC: 2.92817 cumulative IPC: 2.92762 (Simulation time: 0 hr 53 min 22 sec) 
Heartbeat CPU 0 instructions: 1180000000 cycles: 384742599 heartbeat IPC: 2.92823 cumulative IPC: 2.92762 (Simulation time: 0 hr 53 min 49 sec) 
Heartbeat CPU 0 instructions: 1190000004 cycles: 388158997 heartbeat IPC: 2.92706 cumulative IPC: 2.92762 (Simulation time: 0 hr 54 min 17 sec) 
Heartbeat CPU 0 instructions: 1200000001 cycles: 391573307 heartbeat IPC: 2.92885 cumulative IPC: 2.92763 (Simulation time: 0 hr 54 min 45 sec) 
Finished CPU 0 instructions: 1000000004 cycles: 341573244 cumulative IPC: 2.92763 (Simulation time: 0 hr 54 min 45 sec) 

ChampSim completed all CPUs

Region of Interest Statistics

CPU 0 cumulative IPC: 2.92763 instructions: 1000000004 cycles: 341573244
cpu0_DTLB TOTAL     ACCESS:   83975667  HIT:   83511852  MISS:     463815
cpu0_DTLB LOAD      ACCESS:   83952985  HIT:   83494748  MISS:     458237
cpu0_DTLB RFO       ACCESS:      22682  HIT:      17104  MISS:       5578
cpu0_DTLB PREFETCH  ACCESS:          0  HIT:          0  MISS:          0
cpu0_DTLB WRITEBACK ACCESS:          0  HIT:          0  MISS:          0
cpu0_DTLB TRANSLATION ACCESS:          0  HIT:          0  MISS:          0
cpu0_DTLB PREFETCH  REQUESTED:          0  ISSUED:          0  USEFUL:          0  USELESS:          0
cpu0_DTLB AVERAGE MISS LATENCY: 11.3007 cycles
cpu0_ITLB TOTAL     ACCESS:   28246534  HIT:   28246534  MISS:          0
cpu0_ITLB LOAD      ACCESS:   28246534  HIT:   28246534  MISS:          0
cpu0_ITLB RFO       ACCESS:          0  HIT:          0  MISS:          0
cpu0_ITLB PREFETCH  ACCESS:          0  HIT:          0  MISS:          0
cpu0_ITLB WRITEBACK ACCESS:          0  HIT:          0  MISS:          0
cpu0_ITLB TRANSLATION ACCESS:          0  HIT:          0  MISS:          0
cpu0_ITLB PREFETCH  REQUESTED:          0  ISSUED:          0  USEFUL:          0  USELESS:          0
cpu0_ITLB AVERAGE MISS LATENCY: -nan cycles
cpu0_STLB TOTAL     ACCESS:     463815  HIT:     463204  MISS:        611
cpu0_STLB LOAD      ACCESS:     458237  HIT:     457632  MISS:        605
cpu0_STLB RFO       ACCESS:       5578  HIT:       5572  MISS:          6
cpu0_STLB PREFETCH  ACCESS:          0  HIT:          0  MISS:          0
cpu0_STLB WRITEBACK ACCESS:          0  HIT:          0  MISS:          0
cpu0_STLB TRANSLATION ACCESS:          0  HIT:          0  MISS:          0
cpu0_STLB PREFETCH  REQUESTED:          0  ISSUED:          0  USEFUL:          0  USELESS:          0
cpu0_STLB AVERAGE MISS LATENCY: 219.206 cycles
cpu0_L1D TOTAL     ACCESS:   35739448  HIT:   26839168  MISS:    8900280
cpu0_L1D LOAD      ACCESS:   35694352  HIT:   26800612  MISS:    8893740
cpu0_L1D RFO       ACCESS:      44485  HIT:      38556  MISS:       5929
cpu0_L1D PREFETCH  ACCESS:          0  HIT:          0  MISS:          0
cpu0_L1D WRITEBACK ACCESS:          0  HIT:          0  MISS:          0
cpu0_L1D TRANSLATION ACCESS:        611  HIT:          0  MISS:        611
cpu0_L1D PREFETCH  REQUESTED:          0  ISSUED:          0  USEFUL:          0  USELESS:          0
cpu0_L1D AVERAGE MISS LATENCY: 11.1097 cycles
cpu0_L2C TOTAL     ACCESS:   31020575  HIT:   30712055  MISS:     308520
cpu0_L2C LOAD      ACCESS:    8893740  HIT:    8875602  MISS:      18138
cpu0_L2C RFO       ACCESS:       5929  HIT:       5575  MISS:        354
cpu0_L2C PREFETCH  ACCESS:   22106001  HIT:   21815979  MISS:     290022
cpu0_L2C WRITEBACK ACCESS:      14294  HIT:      14294  MISS:          0
cpu0_L2C TRANSLATION ACCESS:        611  HIT:        605  MISS:          6
cpu0_L2C PREFETCH  REQUESTED:   23128012  ISSUED:   22948334  USEFUL:     243166  USELESS:      50041
cpu0_L2C AVERAGE MISS LATENCY: 23.4226 cycles
LLC TOTAL     ACCESS:    1142762  HIT:    1103556  MISS:      39206
LLC LOAD      ACCESS:      15004  HIT:      14109  MISS:        895
LLC RFO       ACCESS:        354  HIT:          5  MISS:        349
LLC PREFETCH  ACCESS:    1126976  HIT:    1089014  MISS:      37962
LLC WRITEBACK ACCESS:        422  HIT:        422  MISS:          0
LLC TRANSLATION ACCESS:          6  HIT:          6  MISS:          0
LLC PREFETCH  REQUESTED:          0  ISSUED:          0  USEFUL:          0  USELESS:          0
LLC AVERAGE MISS LATENCY: 165.649 cycles
Printing the final status 

DRAM Statistics
 CHANNEL 0
 RQ ROW_BUFFER_HIT:        188  ROW_BUFFER_MISS:      39018
 DBUS AVG_CONGESTED_CYCLE:    3.95589
 WQ ROW_BUFFER_HIT:          0  ROW_BUFFER_MISS:        129  FULL:          0


CPU 0 Branch Prediction Accuracy: 99.396% MPKI: 0.625173 Average ROB Occupancy at Mispredict: 187.788
Branch type MPKI
BRANCH_DIRECT_JUMP: 1e-06
BRANCH_INDIRECT: 0
BRANCH_CONDITIONAL: 0.625172
BRANCH_DIRECT_CALL: 0
BRANCH_INDIRECT_CALL: 0
BRANCH_RETURN: 0

***************** Done with 638.imagick_s-10316B.champsimtrace.xz using ppf-spp-dev-3, on Wed Apr 20 14:33:18 CDT 2022 ******************
