Started running file 603.bwaves_s-3699B.champsimtrace.xz at time Wed Apr 20 12:49:09 CDT 2022 with prefetcher ppf-spp-dev-3

*** ChampSim Multicore Out-of-Order Simulator ***

Warmup Instructions: 200000000
Simulation Instructions: 1000000000
Number of CPUs: 1
Off-chip DRAM Size: 4 GiB Channels: 1 Width: 64-bit Data Rate: 3200 MT/s

VirtualMemory physical capacity: 8588881920 num_ppages: 2096895
VirtualMemory page size: 4096 log2_page_size: 12

CPU 0 runs /home/faculty/p/pgratz/dpc3_traces/603.bwaves_s-3699B.champsimtrace.xz
CPU 0 Bimodal branch predictor
Basic BTB sets: 1024 ways: 8 indirect buffer size: 4096 RAS size: 64
cpu0_L2C PPF SPP DEV Prefetcher
Heartbeat CPU 0 instructions: 10000000 cycles: 2685159 heartbeat IPC: 3.72417 cumulative IPC: 3.72417 (Simulation time: 0 hr 0 min 30 sec) 
Heartbeat CPU 0 instructions: 20000002 cycles: 5318712 heartbeat IPC: 3.79715 cumulative IPC: 3.76031 (Simulation time: 0 hr 1 min 1 sec) 
Heartbeat CPU 0 instructions: 30000003 cycles: 7940269 heartbeat IPC: 3.81453 cumulative IPC: 3.77821 (Simulation time: 0 hr 1 min 32 sec) 
Heartbeat CPU 0 instructions: 40000003 cycles: 10625392 heartbeat IPC: 3.72422 cumulative IPC: 3.76457 (Simulation time: 0 hr 2 min 2 sec) 
Heartbeat CPU 0 instructions: 50000002 cycles: 13309244 heartbeat IPC: 3.72599 cumulative IPC: 3.75679 (Simulation time: 0 hr 2 min 32 sec) 
Heartbeat CPU 0 instructions: 60000004 cycles: 15989463 heartbeat IPC: 3.73104 cumulative IPC: 3.75247 (Simulation time: 0 hr 3 min 2 sec) 
Heartbeat CPU 0 instructions: 70000000 cycles: 18666374 heartbeat IPC: 3.73565 cumulative IPC: 3.75006 (Simulation time: 0 hr 3 min 32 sec) 
Heartbeat CPU 0 instructions: 80000004 cycles: 21342357 heartbeat IPC: 3.73695 cumulative IPC: 3.74841 (Simulation time: 0 hr 4 min 2 sec) 
Heartbeat CPU 0 instructions: 90000001 cycles: 24020469 heartbeat IPC: 3.73397 cumulative IPC: 3.7468 (Simulation time: 0 hr 4 min 32 sec) 
Heartbeat CPU 0 instructions: 100000001 cycles: 26682874 heartbeat IPC: 3.756 cumulative IPC: 3.74772 (Simulation time: 0 hr 5 min 2 sec) 
Heartbeat CPU 0 instructions: 110000002 cycles: 29347063 heartbeat IPC: 3.75349 cumulative IPC: 3.74825 (Simulation time: 0 hr 5 min 32 sec) 
Heartbeat CPU 0 instructions: 120000002 cycles: 32009004 heartbeat IPC: 3.75666 cumulative IPC: 3.74895 (Simulation time: 0 hr 6 min 2 sec) 
Heartbeat CPU 0 instructions: 130000000 cycles: 34661388 heartbeat IPC: 3.77019 cumulative IPC: 3.75057 (Simulation time: 0 hr 6 min 32 sec) 
Heartbeat CPU 0 instructions: 140000000 cycles: 37292401 heartbeat IPC: 3.80082 cumulative IPC: 3.75412 (Simulation time: 0 hr 7 min 2 sec) 
Heartbeat CPU 0 instructions: 150000004 cycles: 39945225 heartbeat IPC: 3.76957 cumulative IPC: 3.75514 (Simulation time: 0 hr 7 min 32 sec) 
Heartbeat CPU 0 instructions: 160000001 cycles: 42603577 heartbeat IPC: 3.76173 cumulative IPC: 3.75555 (Simulation time: 0 hr 8 min 1 sec) 
Heartbeat CPU 0 instructions: 170000002 cycles: 45238912 heartbeat IPC: 3.79458 cumulative IPC: 3.75783 (Simulation time: 0 hr 8 min 31 sec) 
Heartbeat CPU 0 instructions: 180000003 cycles: 47874288 heartbeat IPC: 3.79453 cumulative IPC: 3.75985 (Simulation time: 0 hr 9 min 1 sec) 
Heartbeat CPU 0 instructions: 190000003 cycles: 50516460 heartbeat IPC: 3.78477 cumulative IPC: 3.76115 (Simulation time: 0 hr 9 min 30 sec) 
Heartbeat CPU 0 instructions: 200000000 cycles: 53183746 heartbeat IPC: 3.74913 cumulative IPC: 3.76055 (Simulation time: 0 hr 10 min 0 sec) 

Warmup complete CPU 0 instructions: 200000005 cycles: 53183747 (Simulation time: 0 hr 10 min 0 sec) 

Heartbeat CPU 0 instructions: 210000000 cycles: 59315995 heartbeat IPC: 1.63072 cumulative IPC: 1.63072 (Simulation time: 0 hr 10 min 27 sec) 
Heartbeat CPU 0 instructions: 220000003 cycles: 65534588 heartbeat IPC: 1.60808 cumulative IPC: 1.61932 (Simulation time: 0 hr 10 min 54 sec) 
Heartbeat CPU 0 instructions: 230000001 cycles: 71651558 heartbeat IPC: 1.6348 cumulative IPC: 1.62445 (Simulation time: 0 hr 11 min 20 sec) 
Heartbeat CPU 0 instructions: 240000000 cycles: 77793840 heartbeat IPC: 1.62806 cumulative IPC: 1.62535 (Simulation time: 0 hr 11 min 47 sec) 
Heartbeat CPU 0 instructions: 250000001 cycles: 83852469 heartbeat IPC: 1.65054 cumulative IPC: 1.63033 (Simulation time: 0 hr 12 min 13 sec) 
Heartbeat CPU 0 instructions: 260000000 cycles: 89957355 heartbeat IPC: 1.63803 cumulative IPC: 1.6316 (Simulation time: 0 hr 12 min 39 sec) 
Heartbeat CPU 0 instructions: 270000000 cycles: 96101624 heartbeat IPC: 1.62753 cumulative IPC: 1.63102 (Simulation time: 0 hr 13 min 6 sec) 
Heartbeat CPU 0 instructions: 280000003 cycles: 102115496 heartbeat IPC: 1.66282 cumulative IPC: 1.63493 (Simulation time: 0 hr 13 min 32 sec) 
Heartbeat CPU 0 instructions: 290000002 cycles: 108230021 heartbeat IPC: 1.63545 cumulative IPC: 1.63499 (Simulation time: 0 hr 13 min 59 sec) 
Heartbeat CPU 0 instructions: 300000000 cycles: 114369638 heartbeat IPC: 1.62877 cumulative IPC: 1.63436 (Simulation time: 0 hr 14 min 25 sec) 
Heartbeat CPU 0 instructions: 310000001 cycles: 120391031 heartbeat IPC: 1.66075 cumulative IPC: 1.63673 (Simulation time: 0 hr 14 min 52 sec) 
Heartbeat CPU 0 instructions: 320000003 cycles: 126544298 heartbeat IPC: 1.62515 cumulative IPC: 1.63576 (Simulation time: 0 hr 15 min 18 sec) 
Heartbeat CPU 0 instructions: 330000003 cycles: 132723925 heartbeat IPC: 1.61822 cumulative IPC: 1.63439 (Simulation time: 0 hr 15 min 45 sec) 
Heartbeat CPU 0 instructions: 340000000 cycles: 138913425 heartbeat IPC: 1.61564 cumulative IPC: 1.63304 (Simulation time: 0 hr 16 min 12 sec) 
Heartbeat CPU 0 instructions: 350000002 cycles: 145048487 heartbeat IPC: 1.62998 cumulative IPC: 1.63284 (Simulation time: 0 hr 16 min 38 sec) 
Heartbeat CPU 0 instructions: 360000000 cycles: 151283482 heartbeat IPC: 1.60385 cumulative IPC: 1.63099 (Simulation time: 0 hr 17 min 5 sec) 
Heartbeat CPU 0 instructions: 370000001 cycles: 157319703 heartbeat IPC: 1.65667 cumulative IPC: 1.63248 (Simulation time: 0 hr 17 min 31 sec) 
Heartbeat CPU 0 instructions: 380000000 cycles: 163600367 heartbeat IPC: 1.59219 cumulative IPC: 1.63019 (Simulation time: 0 hr 17 min 58 sec) 
Heartbeat CPU 0 instructions: 390000004 cycles: 169729029 heartbeat IPC: 1.63168 cumulative IPC: 1.63027 (Simulation time: 0 hr 18 min 24 sec) 
Heartbeat CPU 0 instructions: 400000001 cycles: 176056549 heartbeat IPC: 1.5804 cumulative IPC: 1.6277 (Simulation time: 0 hr 18 min 51 sec) 
Heartbeat CPU 0 instructions: 410000001 cycles: 182283008 heartbeat IPC: 1.60605 cumulative IPC: 1.62666 (Simulation time: 0 hr 19 min 17 sec) 
Heartbeat CPU 0 instructions: 420000000 cycles: 188456736 heartbeat IPC: 1.61977 cumulative IPC: 1.62634 (Simulation time: 0 hr 19 min 44 sec) 
Heartbeat CPU 0 instructions: 430000000 cycles: 194629476 heartbeat IPC: 1.62003 cumulative IPC: 1.62607 (Simulation time: 0 hr 20 min 10 sec) 
Heartbeat CPU 0 instructions: 440000003 cycles: 200878802 heartbeat IPC: 1.60017 cumulative IPC: 1.62497 (Simulation time: 0 hr 20 min 37 sec) 
Heartbeat CPU 0 instructions: 450000004 cycles: 206930454 heartbeat IPC: 1.65244 cumulative IPC: 1.62605 (Simulation time: 0 hr 21 min 3 sec) 
Heartbeat CPU 0 instructions: 460000002 cycles: 212980786 heartbeat IPC: 1.6528 cumulative IPC: 1.62706 (Simulation time: 0 hr 21 min 29 sec) 
Heartbeat CPU 0 instructions: 470000003 cycles: 218913857 heartbeat IPC: 1.68547 cumulative IPC: 1.62915 (Simulation time: 0 hr 21 min 55 sec) 
Heartbeat CPU 0 instructions: 480000001 cycles: 224901382 heartbeat IPC: 1.67014 cumulative IPC: 1.63058 (Simulation time: 0 hr 22 min 22 sec) 
Heartbeat CPU 0 instructions: 490000003 cycles: 230838795 heartbeat IPC: 1.68424 cumulative IPC: 1.63238 (Simulation time: 0 hr 22 min 47 sec) 
Heartbeat CPU 0 instructions: 500000000 cycles: 236775286 heartbeat IPC: 1.6845 cumulative IPC: 1.63406 (Simulation time: 0 hr 23 min 14 sec) 
Heartbeat CPU 0 instructions: 510000003 cycles: 242706934 heartbeat IPC: 1.68587 cumulative IPC: 1.63568 (Simulation time: 0 hr 23 min 40 sec) 
Heartbeat CPU 0 instructions: 520000001 cycles: 248654862 heartbeat IPC: 1.68126 cumulative IPC: 1.63707 (Simulation time: 0 hr 24 min 6 sec) 
Heartbeat CPU 0 instructions: 530000000 cycles: 254892431 heartbeat IPC: 1.60319 cumulative IPC: 1.63602 (Simulation time: 0 hr 24 min 45 sec) 
Heartbeat CPU 0 instructions: 540000000 cycles: 260974272 heartbeat IPC: 1.64424 cumulative IPC: 1.63626 (Simulation time: 0 hr 25 min 20 sec) 
Heartbeat CPU 0 instructions: 550000000 cycles: 266907151 heartbeat IPC: 1.68552 cumulative IPC: 1.63763 (Simulation time: 0 hr 25 min 46 sec) 
Heartbeat CPU 0 instructions: 560000003 cycles: 272849634 heartbeat IPC: 1.6828 cumulative IPC: 1.63885 (Simulation time: 0 hr 26 min 13 sec) 
Heartbeat CPU 0 instructions: 570000000 cycles: 278784056 heartbeat IPC: 1.68508 cumulative IPC: 1.64007 (Simulation time: 0 hr 26 min 39 sec) 
Heartbeat CPU 0 instructions: 580000002 cycles: 284707050 heartbeat IPC: 1.68834 cumulative IPC: 1.6413 (Simulation time: 0 hr 27 min 5 sec) 
Heartbeat CPU 0 instructions: 590000000 cycles: 290645141 heartbeat IPC: 1.68404 cumulative IPC: 1.64237 (Simulation time: 0 hr 27 min 31 sec) 
Heartbeat CPU 0 instructions: 600000001 cycles: 296583050 heartbeat IPC: 1.68409 cumulative IPC: 1.64339 (Simulation time: 0 hr 27 min 57 sec) 
Heartbeat CPU 0 instructions: 610000000 cycles: 302509655 heartbeat IPC: 1.68731 cumulative IPC: 1.64443 (Simulation time: 0 hr 28 min 23 sec) 
Heartbeat CPU 0 instructions: 620000004 cycles: 308457174 heartbeat IPC: 1.68137 cumulative IPC: 1.64529 (Simulation time: 0 hr 28 min 49 sec) 
Heartbeat CPU 0 instructions: 630000000 cycles: 314401924 heartbeat IPC: 1.68216 cumulative IPC: 1.64613 (Simulation time: 0 hr 29 min 15 sec) 
Heartbeat CPU 0 instructions: 640000000 cycles: 320347158 heartbeat IPC: 1.68202 cumulative IPC: 1.64693 (Simulation time: 0 hr 29 min 41 sec) 
Heartbeat CPU 0 instructions: 650000000 cycles: 326282577 heartbeat IPC: 1.6848 cumulative IPC: 1.64776 (Simulation time: 0 hr 30 min 7 sec) 
Heartbeat CPU 0 instructions: 660000003 cycles: 332332287 heartbeat IPC: 1.65297 cumulative IPC: 1.64787 (Simulation time: 0 hr 30 min 33 sec) 
Heartbeat CPU 0 instructions: 670000002 cycles: 338498827 heartbeat IPC: 1.62165 cumulative IPC: 1.6473 (Simulation time: 0 hr 31 min 0 sec) 
Heartbeat CPU 0 instructions: 680000000 cycles: 344728607 heartbeat IPC: 1.60519 cumulative IPC: 1.6464 (Simulation time: 0 hr 31 min 26 sec) 
Heartbeat CPU 0 instructions: 690000000 cycles: 350900553 heartbeat IPC: 1.62023 cumulative IPC: 1.64586 (Simulation time: 0 hr 31 min 52 sec) 
Heartbeat CPU 0 instructions: 700000001 cycles: 356996663 heartbeat IPC: 1.64039 cumulative IPC: 1.64575 (Simulation time: 0 hr 32 min 19 sec) 
Heartbeat CPU 0 instructions: 710000000 cycles: 363233199 heartbeat IPC: 1.60345 cumulative IPC: 1.6449 (Simulation time: 0 hr 32 min 45 sec) 
Heartbeat CPU 0 instructions: 720000000 cycles: 369632017 heartbeat IPC: 1.56279 cumulative IPC: 1.64324 (Simulation time: 0 hr 33 min 12 sec) 
Heartbeat CPU 0 instructions: 730000003 cycles: 375899547 heartbeat IPC: 1.59553 cumulative IPC: 1.64231 (Simulation time: 0 hr 33 min 38 sec) 
Heartbeat CPU 0 instructions: 740000001 cycles: 382043997 heartbeat IPC: 1.62748 cumulative IPC: 1.64203 (Simulation time: 0 hr 34 min 5 sec) 
Heartbeat CPU 0 instructions: 750000002 cycles: 388304180 heartbeat IPC: 1.5974 cumulative IPC: 1.6412 (Simulation time: 0 hr 34 min 31 sec) 
Heartbeat CPU 0 instructions: 760000000 cycles: 394461171 heartbeat IPC: 1.62417 cumulative IPC: 1.64089 (Simulation time: 0 hr 34 min 58 sec) 
Heartbeat CPU 0 instructions: 770000000 cycles: 400506303 heartbeat IPC: 1.65422 cumulative IPC: 1.64113 (Simulation time: 0 hr 35 min 24 sec) 
Heartbeat CPU 0 instructions: 780000003 cycles: 406646253 heartbeat IPC: 1.62868 cumulative IPC: 1.64091 (Simulation time: 0 hr 35 min 51 sec) 
Heartbeat CPU 0 instructions: 790000000 cycles: 412669682 heartbeat IPC: 1.66018 cumulative IPC: 1.64123 (Simulation time: 0 hr 36 min 17 sec) 
Heartbeat CPU 0 instructions: 800000003 cycles: 418793875 heartbeat IPC: 1.63287 cumulative IPC: 1.64109 (Simulation time: 0 hr 36 min 44 sec) 
Heartbeat CPU 0 instructions: 810000001 cycles: 424911178 heartbeat IPC: 1.63471 cumulative IPC: 1.64099 (Simulation time: 0 hr 37 min 10 sec) 
Heartbeat CPU 0 instructions: 820000001 cycles: 431017402 heartbeat IPC: 1.63767 cumulative IPC: 1.64093 (Simulation time: 0 hr 37 min 37 sec) 
Heartbeat CPU 0 instructions: 830000000 cycles: 437042999 heartbeat IPC: 1.65959 cumulative IPC: 1.64123 (Simulation time: 0 hr 38 min 3 sec) 
Heartbeat CPU 0 instructions: 840000004 cycles: 443173800 heartbeat IPC: 1.63111 cumulative IPC: 1.64107 (Simulation time: 0 hr 38 min 29 sec) 
Heartbeat CPU 0 instructions: 850000002 cycles: 449191533 heartbeat IPC: 1.66175 cumulative IPC: 1.64138 (Simulation time: 0 hr 38 min 56 sec) 
Heartbeat CPU 0 instructions: 860000004 cycles: 455323171 heartbeat IPC: 1.63089 cumulative IPC: 1.64122 (Simulation time: 0 hr 39 min 22 sec) 
Heartbeat CPU 0 instructions: 870000000 cycles: 461351779 heartbeat IPC: 1.65876 cumulative IPC: 1.64148 (Simulation time: 0 hr 39 min 49 sec) 
Heartbeat CPU 0 instructions: 880000000 cycles: 467523334 heartbeat IPC: 1.62034 cumulative IPC: 1.64117 (Simulation time: 0 hr 40 min 15 sec) 
Heartbeat CPU 0 instructions: 890000002 cycles: 473553233 heartbeat IPC: 1.6584 cumulative IPC: 1.64141 (Simulation time: 0 hr 40 min 42 sec) 
Heartbeat CPU 0 instructions: 900000001 cycles: 479687674 heartbeat IPC: 1.63014 cumulative IPC: 1.64125 (Simulation time: 0 hr 41 min 8 sec) 
Heartbeat CPU 0 instructions: 910000000 cycles: 485865043 heartbeat IPC: 1.61881 cumulative IPC: 1.64093 (Simulation time: 0 hr 41 min 35 sec) 
Heartbeat CPU 0 instructions: 920000002 cycles: 491911410 heartbeat IPC: 1.65389 cumulative IPC: 1.64111 (Simulation time: 0 hr 42 min 1 sec) 
Heartbeat CPU 0 instructions: 930000002 cycles: 497949020 heartbeat IPC: 1.65628 cumulative IPC: 1.64132 (Simulation time: 0 hr 42 min 27 sec) 
Heartbeat CPU 0 instructions: 940000003 cycles: 504142536 heartbeat IPC: 1.61459 cumulative IPC: 1.64095 (Simulation time: 0 hr 42 min 54 sec) 
Heartbeat CPU 0 instructions: 950000002 cycles: 510444352 heartbeat IPC: 1.58684 cumulative IPC: 1.6402 (Simulation time: 0 hr 43 min 20 sec) 
Heartbeat CPU 0 instructions: 960000000 cycles: 516611400 heartbeat IPC: 1.62152 cumulative IPC: 1.63995 (Simulation time: 0 hr 43 min 47 sec) 
Heartbeat CPU 0 instructions: 970000002 cycles: 522806864 heartbeat IPC: 1.61408 cumulative IPC: 1.63961 (Simulation time: 0 hr 44 min 13 sec) 
Heartbeat CPU 0 instructions: 980000003 cycles: 529278641 heartbeat IPC: 1.54517 cumulative IPC: 1.63833 (Simulation time: 0 hr 44 min 40 sec) 
Heartbeat CPU 0 instructions: 990000002 cycles: 535407583 heartbeat IPC: 1.6316 cumulative IPC: 1.63824 (Simulation time: 0 hr 45 min 6 sec) 
Heartbeat CPU 0 instructions: 1000000000 cycles: 541658622 heartbeat IPC: 1.59973 cumulative IPC: 1.63775 (Simulation time: 0 hr 45 min 33 sec) 
Heartbeat CPU 0 instructions: 1010000000 cycles: 547820162 heartbeat IPC: 1.62297 cumulative IPC: 1.63757 (Simulation time: 0 hr 45 min 59 sec) 
Heartbeat CPU 0 instructions: 1020000003 cycles: 553841420 heartbeat IPC: 1.66078 cumulative IPC: 1.63785 (Simulation time: 0 hr 46 min 26 sec) 
Heartbeat CPU 0 instructions: 1030000002 cycles: 559910131 heartbeat IPC: 1.6478 cumulative IPC: 1.63796 (Simulation time: 0 hr 46 min 52 sec) 
Heartbeat CPU 0 instructions: 1040000002 cycles: 565907016 heartbeat IPC: 1.66753 cumulative IPC: 1.63831 (Simulation time: 0 hr 47 min 18 sec) 
Heartbeat CPU 0 instructions: 1050000002 cycles: 571837472 heartbeat IPC: 1.68621 cumulative IPC: 1.63886 (Simulation time: 0 hr 47 min 44 sec) 
Heartbeat CPU 0 instructions: 1060000000 cycles: 577798135 heartbeat IPC: 1.67767 cumulative IPC: 1.6393 (Simulation time: 0 hr 48 min 10 sec) 
Heartbeat CPU 0 instructions: 1070000001 cycles: 583731882 heartbeat IPC: 1.68528 cumulative IPC: 1.63981 (Simulation time: 0 hr 48 min 36 sec) 
Heartbeat CPU 0 instructions: 1080000002 cycles: 589651769 heartbeat IPC: 1.68922 cumulative IPC: 1.64036 (Simulation time: 0 hr 49 min 2 sec) 
Heartbeat CPU 0 instructions: 1090000004 cycles: 595585786 heartbeat IPC: 1.6852 cumulative IPC: 1.64085 (Simulation time: 0 hr 49 min 28 sec) 
Heartbeat CPU 0 instructions: 1100000002 cycles: 601532653 heartbeat IPC: 1.68156 cumulative IPC: 1.64129 (Simulation time: 0 hr 49 min 54 sec) 
Heartbeat CPU 0 instructions: 1110000004 cycles: 607453961 heartbeat IPC: 1.68882 cumulative IPC: 1.6418 (Simulation time: 0 hr 50 min 20 sec) 
Heartbeat CPU 0 instructions: 1120000000 cycles: 613387100 heartbeat IPC: 1.68545 cumulative IPC: 1.64226 (Simulation time: 0 hr 50 min 46 sec) 
Heartbeat CPU 0 instructions: 1130000001 cycles: 619331349 heartbeat IPC: 1.6823 cumulative IPC: 1.64268 (Simulation time: 0 hr 51 min 13 sec) 
Heartbeat CPU 0 instructions: 1140000003 cycles: 625176434 heartbeat IPC: 1.71084 cumulative IPC: 1.64338 (Simulation time: 0 hr 51 min 39 sec) 
Heartbeat CPU 0 instructions: 1150000002 cycles: 630968506 heartbeat IPC: 1.7265 cumulative IPC: 1.64421 (Simulation time: 0 hr 52 min 5 sec) 
Heartbeat CPU 0 instructions: 1160000000 cycles: 637408930 heartbeat IPC: 1.55269 cumulative IPC: 1.6432 (Simulation time: 0 hr 52 min 53 sec) 
Heartbeat CPU 0 instructions: 1170000002 cycles: 643301191 heartbeat IPC: 1.69714 cumulative IPC: 1.64374 (Simulation time: 0 hr 53 min 19 sec) 
Heartbeat CPU 0 instructions: 1180000002 cycles: 649237386 heartbeat IPC: 1.68458 cumulative IPC: 1.64415 (Simulation time: 0 hr 53 min 45 sec) 
Heartbeat CPU 0 instructions: 1190000004 cycles: 655153463 heartbeat IPC: 1.69031 cumulative IPC: 1.6446 (Simulation time: 0 hr 54 min 11 sec) 
Heartbeat CPU 0 instructions: 1200000000 cycles: 661086426 heartbeat IPC: 1.6855 cumulative IPC: 1.645 (Simulation time: 0 hr 54 min 37 sec) 
Finished CPU 0 instructions: 1000000000 cycles: 607902682 cumulative IPC: 1.645 (Simulation time: 0 hr 54 min 37 sec) 

ChampSim completed all CPUs

Region of Interest Statistics

CPU 0 cumulative IPC: 1.645 instructions: 1000000000 cycles: 607902682
cpu0_DTLB TOTAL     ACCESS:  147681230  HIT:  147677942  MISS:       3288
cpu0_DTLB LOAD      ACCESS:  125387959  HIT:  125387330  MISS:        629
cpu0_DTLB RFO       ACCESS:   22293271  HIT:   22290612  MISS:       2659
cpu0_DTLB PREFETCH  ACCESS:          0  HIT:          0  MISS:          0
cpu0_DTLB WRITEBACK ACCESS:          0  HIT:          0  MISS:          0
cpu0_DTLB TRANSLATION ACCESS:          0  HIT:          0  MISS:          0
cpu0_DTLB PREFETCH  REQUESTED:          0  ISSUED:          0  USEFUL:          0  USELESS:          0
cpu0_DTLB AVERAGE MISS LATENCY: 204.744 cycles
cpu0_ITLB TOTAL     ACCESS:  119391406  HIT:  119391406  MISS:          0
cpu0_ITLB LOAD      ACCESS:  119391406  HIT:  119391406  MISS:          0
cpu0_ITLB RFO       ACCESS:          0  HIT:          0  MISS:          0
cpu0_ITLB PREFETCH  ACCESS:          0  HIT:          0  MISS:          0
cpu0_ITLB WRITEBACK ACCESS:          0  HIT:          0  MISS:          0
cpu0_ITLB TRANSLATION ACCESS:          0  HIT:          0  MISS:          0
cpu0_ITLB PREFETCH  REQUESTED:          0  ISSUED:          0  USEFUL:          0  USELESS:          0
cpu0_ITLB AVERAGE MISS LATENCY: -nan cycles
cpu0_L1I TOTAL     ACCESS:    5681623  HIT:    5681623  MISS:          0
cpu0_L1I LOAD      ACCESS:    5681623  HIT:    5681623  MISS:          0
cpu0_L1I RFO       ACCESS:          0  HIT:          0  MISS:          0
cpu0_L1I PREFETCH  ACCESS:          0  HIT:          0  MISS:          0
cpu0_L1I WRITEBACK ACCESS:          0  HIT:          0  MISS:          0
cpu0_L1I TRANSLATION ACCESS:          0  HIT:          0  MISS:          0
cpu0_L1I PREFETCH  REQUESTED:          0  ISSUED:          0  USEFUL:          0  USELESS:          0
cpu0_L1I AVERAGE MISS LATENCY: -nan cycles
cpu0_STLB TOTAL     ACCESS:       3288  HIT:        363  MISS:       2925
cpu0_STLB LOAD      ACCESS:        629  HIT:        318  MISS:        311
cpu0_STLB RFO       ACCESS:       2659  HIT:         45  MISS:       2614
cpu0_STLB PREFETCH  ACCESS:          0  HIT:          0  MISS:          0
cpu0_STLB WRITEBACK ACCESS:          0  HIT:          0  MISS:          0
cpu0_STLB TRANSLATION ACCESS:          0  HIT:          0  MISS:          0
cpu0_STLB PREFETCH  REQUESTED:          0  ISSUED:          0  USEFUL:          0  USELESS:          0
cpu0_STLB AVERAGE MISS LATENCY: 217.788 cycles
cpu0_L1D TOTAL     ACCESS:  166040223  HIT:  165836410  MISS:     203813
cpu0_L1D LOAD      ACCESS:  128626834  HIT:  128591116  MISS:      35718
cpu0_L1D RFO       ACCESS:   37410464  HIT:   37242607  MISS:     167857
cpu0_L1D PREFETCH  ACCESS:          0  HIT:          0  MISS:          0
cpu0_L1D WRITEBACK ACCESS:          0  HIT:          0  MISS:          0
cpu0_L1D TRANSLATION ACCESS:       2925  HIT:       2687  MISS:        238
cpu0_L1D PREFETCH  REQUESTED:          0  ISSUED:          0  USEFUL:          0  USELESS:          0
cpu0_L1D AVERAGE MISS LATENCY: 870.16 cycles
cpu0_L2C TOTAL     ACCESS:     410154  HIT:     208875  MISS:     201279
cpu0_L2C LOAD      ACCESS:      35718  HIT:      35045  MISS:        673
cpu0_L2C RFO       ACCESS:     167857  HIT:        450  MISS:     167407
cpu0_L2C PREFETCH  ACCESS:      39127  HIT:       6148  MISS:      32979
cpu0_L2C WRITEBACK ACCESS:     167214  HIT:     166994  MISS:        220
cpu0_L2C TRANSLATION ACCESS:        238  HIT:        238  MISS:          0
cpu0_L2C PREFETCH  REQUESTED:      90522  ISSUED:      90053  USEFUL:      32946  USELESS:         40
cpu0_L2C AVERAGE MISS LATENCY: 915.543 cycles
LLC TOTAL     ACCESS:     404622  HIT:     203407  MISS:     201215
LLC LOAD      ACCESS:        660  HIT:         19  MISS:        641
LLC RFO       ACCESS:     167407  HIT:          0  MISS:     167407
LLC PREFETCH  ACCESS:      69686  HIT:      36695  MISS:      32991
LLC WRITEBACK ACCESS:     166869  HIT:     166693  MISS:        176
LLC TRANSLATION ACCESS:          0  HIT:          0  MISS:          0
LLC PREFETCH  REQUESTED:          0  ISSUED:          0  USEFUL:          0  USELESS:          0
LLC AVERAGE MISS LATENCY: 1022.77 cycles
Printing the final status 

DRAM Statistics
 CHANNEL 0
 RQ ROW_BUFFER_HIT:       6071  ROW_BUFFER_MISS:     194968
 DBUS AVG_CONGESTED_CYCLE:    3.96781
 WQ ROW_BUFFER_HIT:      16168  ROW_BUFFER_MISS:     150143  FULL:          0


CPU 0 Branch Prediction Accuracy: 80.5169% MPKI: 28.2727 Average ROB Occupancy at Mispredict: 47.3669
Branch type MPKI
BRANCH_DIRECT_JUMP: 0
BRANCH_INDIRECT: 0
BRANCH_CONDITIONAL: 28.2727
BRANCH_DIRECT_CALL: 0
BRANCH_INDIRECT_CALL: 0
BRANCH_RETURN: 0

***************** Done with 603.bwaves_s-3699B.champsimtrace.xz using ppf-spp-dev-3, on Wed Apr 20 13:43:46 CDT 2022 ******************
