Started running file 623.xalancbmk_s-700B.champsimtrace.xz at time Wed Apr 20 17:10:07 CDT 2022 with prefetcher ppf-spp-dev-3

*** ChampSim Multicore Out-of-Order Simulator ***

Warmup Instructions: 200000000
Simulation Instructions: 1000000000
Number of CPUs: 1
Off-chip DRAM Size: 4 GiB Channels: 1 Width: 64-bit Data Rate: 3200 MT/s

VirtualMemory physical capacity: 8588881920 num_ppages: 2096895
VirtualMemory page size: 4096 log2_page_size: 12

CPU 0 runs /home/faculty/p/pgratz/dpc3_traces/623.xalancbmk_s-700B.champsimtrace.xz
CPU 0 Bimodal branch predictor
Basic BTB sets: 1024 ways: 8 indirect buffer size: 4096 RAS size: 64
cpu0_L2C PPF SPP DEV Prefetcher
Heartbeat CPU 0 instructions: 10000004 cycles: 2821897 heartbeat IPC: 3.54372 cumulative IPC: 3.54372 (Simulation time: 0 hr 0 min 39 sec) 
Heartbeat CPU 0 instructions: 20000000 cycles: 5952013 heartbeat IPC: 3.19477 cumulative IPC: 3.36021 (Simulation time: 0 hr 1 min 22 sec) 
Heartbeat CPU 0 instructions: 30000000 cycles: 8836328 heartbeat IPC: 3.46703 cumulative IPC: 3.39508 (Simulation time: 0 hr 2 min 4 sec) 
Heartbeat CPU 0 instructions: 40000002 cycles: 11563689 heartbeat IPC: 3.66655 cumulative IPC: 3.4591 (Simulation time: 0 hr 2 min 43 sec) 
Heartbeat CPU 0 instructions: 50000003 cycles: 14329340 heartbeat IPC: 3.61579 cumulative IPC: 3.48934 (Simulation time: 0 hr 3 min 21 sec) 
Heartbeat CPU 0 instructions: 60000003 cycles: 17378779 heartbeat IPC: 3.27929 cumulative IPC: 3.45249 (Simulation time: 0 hr 4 min 2 sec) 
Heartbeat CPU 0 instructions: 70000004 cycles: 20558782 heartbeat IPC: 3.14465 cumulative IPC: 3.40487 (Simulation time: 0 hr 4 min 45 sec) 
Heartbeat CPU 0 instructions: 80000000 cycles: 23428818 heartbeat IPC: 3.48428 cumulative IPC: 3.4146 (Simulation time: 0 hr 5 min 26 sec) 
Heartbeat CPU 0 instructions: 90000002 cycles: 26305141 heartbeat IPC: 3.47666 cumulative IPC: 3.42138 (Simulation time: 0 hr 6 min 5 sec) 
Heartbeat CPU 0 instructions: 100000000 cycles: 29124193 heartbeat IPC: 3.54729 cumulative IPC: 3.43357 (Simulation time: 0 hr 6 min 44 sec) 
Heartbeat CPU 0 instructions: 110000001 cycles: 31840269 heartbeat IPC: 3.68178 cumulative IPC: 3.45474 (Simulation time: 0 hr 7 min 22 sec) 
Heartbeat CPU 0 instructions: 120000001 cycles: 34596299 heartbeat IPC: 3.62841 cumulative IPC: 3.46858 (Simulation time: 0 hr 7 min 59 sec) 
Heartbeat CPU 0 instructions: 130000003 cycles: 37603818 heartbeat IPC: 3.325 cumulative IPC: 3.4571 (Simulation time: 0 hr 8 min 39 sec) 
Heartbeat CPU 0 instructions: 140000004 cycles: 40779465 heartbeat IPC: 3.14896 cumulative IPC: 3.4331 (Simulation time: 0 hr 9 min 22 sec) 
Heartbeat CPU 0 instructions: 150000000 cycles: 43567594 heartbeat IPC: 3.58663 cumulative IPC: 3.44293 (Simulation time: 0 hr 10 min 0 sec) 
Heartbeat CPU 0 instructions: 160000002 cycles: 46560490 heartbeat IPC: 3.34125 cumulative IPC: 3.43639 (Simulation time: 0 hr 10 min 41 sec) 
Heartbeat CPU 0 instructions: 170000000 cycles: 49399897 heartbeat IPC: 3.52186 cumulative IPC: 3.4413 (Simulation time: 0 hr 11 min 20 sec) 
Heartbeat CPU 0 instructions: 180000002 cycles: 52109453 heartbeat IPC: 3.69064 cumulative IPC: 3.45427 (Simulation time: 0 hr 11 min 58 sec) 
Heartbeat CPU 0 instructions: 190000000 cycles: 54856292 heartbeat IPC: 3.64055 cumulative IPC: 3.4636 (Simulation time: 0 hr 12 min 35 sec) 
Heartbeat CPU 0 instructions: 200000001 cycles: 57759018 heartbeat IPC: 3.44504 cumulative IPC: 3.46266 (Simulation time: 0 hr 13 min 13 sec) 

Warmup complete CPU 0 instructions: 200000001 cycles: 57759018 (Simulation time: 0 hr 13 min 13 sec) 

Heartbeat CPU 0 instructions: 210000002 cycles: 67589411 heartbeat IPC: 1.01725 cumulative IPC: 1.01725 (Simulation time: 0 hr 14 min 10 sec) 
Heartbeat CPU 0 instructions: 220000000 cycles: 81894046 heartbeat IPC: 0.699074 cumulative IPC: 0.828671 (Simulation time: 0 hr 15 min 10 sec) 
Heartbeat CPU 0 instructions: 230000001 cycles: 93401294 heartbeat IPC: 0.869018 cumulative IPC: 0.841697 (Simulation time: 0 hr 16 min 2 sec) 
Heartbeat CPU 0 instructions: 240000002 cycles: 104035882 heartbeat IPC: 0.940328 cumulative IPC: 0.864363 (Simulation time: 0 hr 16 min 53 sec) 
Heartbeat CPU 0 instructions: 250000004 cycles: 114174478 heartbeat IPC: 0.98633 cumulative IPC: 0.886282 (Simulation time: 0 hr 17 min 44 sec) 
Heartbeat CPU 0 instructions: 260000001 cycles: 123699054 heartbeat IPC: 1.04992 cumulative IPC: 0.909918 (Simulation time: 0 hr 18 min 35 sec) 
Heartbeat CPU 0 instructions: 270000001 cycles: 131484463 heartbeat IPC: 1.28445 cumulative IPC: 0.949469 (Simulation time: 0 hr 19 min 29 sec) 
Heartbeat CPU 0 instructions: 280000001 cycles: 140367010 heartbeat IPC: 1.1258 cumulative IPC: 0.968429 (Simulation time: 0 hr 20 min 24 sec) 
Heartbeat CPU 0 instructions: 290000001 cycles: 152039145 heartbeat IPC: 0.856741 cumulative IPC: 0.954602 (Simulation time: 0 hr 21 min 22 sec) 
Heartbeat CPU 0 instructions: 300000000 cycles: 167166637 heartbeat IPC: 0.661048 cumulative IPC: 0.914013 (Simulation time: 0 hr 22 min 22 sec) 
Heartbeat CPU 0 instructions: 310000000 cycles: 178663044 heartbeat IPC: 0.869837 cumulative IPC: 0.909813 (Simulation time: 0 hr 23 min 13 sec) 
Heartbeat CPU 0 instructions: 320000001 cycles: 191538671 heartbeat IPC: 0.776661 cumulative IPC: 0.896997 (Simulation time: 0 hr 24 min 13 sec) 
Heartbeat CPU 0 instructions: 330000001 cycles: 203205883 heartbeat IPC: 0.857103 cumulative IPC: 0.893797 (Simulation time: 0 hr 25 min 6 sec) 
Heartbeat CPU 0 instructions: 340000002 cycles: 213858656 heartbeat IPC: 0.938723 cumulative IPC: 0.896863 (Simulation time: 0 hr 25 min 57 sec) 
Heartbeat CPU 0 instructions: 350000001 cycles: 223949478 heartbeat IPC: 0.990999 cumulative IPC: 0.902579 (Simulation time: 0 hr 26 min 48 sec) 
Heartbeat CPU 0 instructions: 360000000 cycles: 233802031 heartbeat IPC: 1.01497 cumulative IPC: 0.908869 (Simulation time: 0 hr 27 min 40 sec) 
Heartbeat CPU 0 instructions: 370000003 cycles: 243591025 heartbeat IPC: 1.02156 cumulative IPC: 0.914805 (Simulation time: 0 hr 28 min 32 sec) 
Heartbeat CPU 0 instructions: 380000004 cycles: 251055329 heartbeat IPC: 1.33971 cumulative IPC: 0.931213 (Simulation time: 0 hr 29 min 25 sec) 
Heartbeat CPU 0 instructions: 390000001 cycles: 258570465 heartbeat IPC: 1.33065 cumulative IPC: 0.946161 (Simulation time: 0 hr 30 min 20 sec) 
Heartbeat CPU 0 instructions: 400000001 cycles: 267261214 heartbeat IPC: 1.15065 cumulative IPC: 0.954644 (Simulation time: 0 hr 31 min 17 sec) 
Heartbeat CPU 0 instructions: 410000000 cycles: 277792036 heartbeat IPC: 0.949593 cumulative IPC: 0.954402 (Simulation time: 0 hr 32 min 15 sec) 
Heartbeat CPU 0 instructions: 420000000 cycles: 293088248 heartbeat IPC: 0.653757 cumulative IPC: 0.93486 (Simulation time: 0 hr 33 min 19 sec) 
Heartbeat CPU 0 instructions: 430000000 cycles: 305216301 heartbeat IPC: 0.824535 cumulative IPC: 0.929453 (Simulation time: 0 hr 34 min 13 sec) 
Heartbeat CPU 0 instructions: 440000001 cycles: 316177068 heartbeat IPC: 0.912345 cumulative IPC: 0.928728 (Simulation time: 0 hr 35 min 5 sec) 
Heartbeat CPU 0 instructions: 450000002 cycles: 326437682 heartbeat IPC: 0.974601 cumulative IPC: 0.93048 (Simulation time: 0 hr 35 min 59 sec) 
Heartbeat CPU 0 instructions: 460000003 cycles: 335628862 heartbeat IPC: 1.088 cumulative IPC: 0.93569 (Simulation time: 0 hr 36 min 57 sec) 
Heartbeat CPU 0 instructions: 470000003 cycles: 350205483 heartbeat IPC: 0.68603 cumulative IPC: 0.923246 (Simulation time: 0 hr 38 min 1 sec) 
Heartbeat CPU 0 instructions: 480000004 cycles: 361979373 heartbeat IPC: 0.849337 cumulative IPC: 0.920385 (Simulation time: 0 hr 38 min 54 sec) 
Heartbeat CPU 0 instructions: 490000003 cycles: 372579188 heartbeat IPC: 0.943413 cumulative IPC: 0.921161 (Simulation time: 0 hr 39 min 49 sec) 
Heartbeat CPU 0 instructions: 500000003 cycles: 385777948 heartbeat IPC: 0.757647 cumulative IPC: 0.914581 (Simulation time: 0 hr 40 min 53 sec) 
Heartbeat CPU 0 instructions: 510000000 cycles: 397895203 heartbeat IPC: 0.825269 cumulative IPC: 0.9114 (Simulation time: 0 hr 41 min 49 sec) 
Heartbeat CPU 0 instructions: 520000003 cycles: 408873778 heartbeat IPC: 0.910865 cumulative IPC: 0.911383 (Simulation time: 0 hr 42 min 43 sec) 
Heartbeat CPU 0 instructions: 530000000 cycles: 419154906 heartbeat IPC: 0.972656 cumulative IPC: 0.913126 (Simulation time: 0 hr 43 min 37 sec) 
Heartbeat CPU 0 instructions: 540000004 cycles: 429049279 heartbeat IPC: 1.01068 cumulative IPC: 0.915726 (Simulation time: 0 hr 44 min 30 sec) 
Heartbeat CPU 0 instructions: 550000000 cycles: 438828138 heartbeat IPC: 1.02261 cumulative IPC: 0.918469 (Simulation time: 0 hr 45 min 25 sec) 
Heartbeat CPU 0 instructions: 560000002 cycles: 448551776 heartbeat IPC: 1.02842 cumulative IPC: 0.921204 (Simulation time: 0 hr 46 min 21 sec) 
Heartbeat CPU 0 instructions: 570000000 cycles: 455662871 heartbeat IPC: 1.40625 cumulative IPC: 0.929873 (Simulation time: 0 hr 47 min 15 sec) 
Heartbeat CPU 0 instructions: 580000001 cycles: 462966863 heartbeat IPC: 1.36911 cumulative IPC: 0.93779 (Simulation time: 0 hr 48 min 10 sec) 
Heartbeat CPU 0 instructions: 590000002 cycles: 471203131 heartbeat IPC: 1.21414 cumulative IPC: 0.943296 (Simulation time: 0 hr 49 min 6 sec) 
Heartbeat CPU 0 instructions: 600000001 cycles: 480669329 heartbeat IPC: 1.05639 cumulative IPC: 0.945827 (Simulation time: 0 hr 50 min 3 sec) 
Heartbeat CPU 0 instructions: 610000001 cycles: 492604507 heartbeat IPC: 0.837859 cumulative IPC: 0.942864 (Simulation time: 0 hr 51 min 3 sec) 
Heartbeat CPU 0 instructions: 620000000 cycles: 508017922 heartbeat IPC: 0.648785 cumulative IPC: 0.932797 (Simulation time: 0 hr 52 min 5 sec) 
Heartbeat CPU 0 instructions: 630000003 cycles: 520834110 heartbeat IPC: 0.780263 cumulative IPC: 0.928575 (Simulation time: 0 hr 53 min 5 sec) 
Heartbeat CPU 0 instructions: 640000003 cycles: 533680880 heartbeat IPC: 0.778406 cumulative IPC: 0.924522 (Simulation time: 0 hr 54 min 3 sec) 
Heartbeat CPU 0 instructions: 650000001 cycles: 544984838 heartbeat IPC: 0.884646 cumulative IPC: 0.923596 (Simulation time: 0 hr 54 min 58 sec) 
Heartbeat CPU 0 instructions: 660000000 cycles: 555503619 heartbeat IPC: 0.95068 cumulative IPC: 0.924169 (Simulation time: 0 hr 55 min 51 sec) 
Heartbeat CPU 0 instructions: 670000003 cycles: 565559031 heartbeat IPC: 0.99449 cumulative IPC: 0.925561 (Simulation time: 0 hr 56 min 43 sec) 
Heartbeat CPU 0 instructions: 680000000 cycles: 575223794 heartbeat IPC: 1.03469 cumulative IPC: 0.927599 (Simulation time: 0 hr 57 min 36 sec) 
Heartbeat CPU 0 instructions: 690000001 cycles: 582603862 heartbeat IPC: 1.355 cumulative IPC: 0.933609 (Simulation time: 0 hr 58 min 29 sec) 
Heartbeat CPU 0 instructions: 700000001 cycles: 591577458 heartbeat IPC: 1.11438 cumulative IPC: 0.936648 (Simulation time: 0 hr 59 min 25 sec) 
Heartbeat CPU 0 instructions: 710000003 cycles: 603385850 heartbeat IPC: 0.846856 cumulative IPC: 0.934705 (Simulation time: 1 hr 0 min 23 sec) 
Heartbeat CPU 0 instructions: 720000003 cycles: 617781230 heartbeat IPC: 0.694667 cumulative IPC: 0.928535 (Simulation time: 1 hr 1 min 22 sec) 
Heartbeat CPU 0 instructions: 730000000 cycles: 630300242 heartbeat IPC: 0.798785 cumulative IPC: 0.925698 (Simulation time: 1 hr 2 min 22 sec) 
Heartbeat CPU 0 instructions: 740000001 cycles: 642881712 heartbeat IPC: 0.79482 cumulative IPC: 0.922883 (Simulation time: 1 hr 3 min 19 sec) 
Heartbeat CPU 0 instructions: 750000003 cycles: 656309020 heartbeat IPC: 0.744751 cumulative IPC: 0.918887 (Simulation time: 1 hr 4 min 19 sec) 
Heartbeat CPU 0 instructions: 760000001 cycles: 669807857 heartbeat IPC: 0.740804 cumulative IPC: 0.91496 (Simulation time: 1 hr 5 min 19 sec) 
Heartbeat CPU 0 instructions: 770000000 cycles: 681583488 heartbeat IPC: 0.849211 cumulative IPC: 0.913719 (Simulation time: 1 hr 6 min 13 sec) 
Heartbeat CPU 0 instructions: 780000001 cycles: 692389623 heartbeat IPC: 0.9254 cumulative IPC: 0.913917 (Simulation time: 1 hr 7 min 5 sec) 
Heartbeat CPU 0 instructions: 790000001 cycles: 702531335 heartbeat IPC: 0.986027 cumulative IPC: 0.915052 (Simulation time: 1 hr 7 min 58 sec) 
Heartbeat CPU 0 instructions: 800000003 cycles: 711109664 heartbeat IPC: 1.16573 cumulative IPC: 0.918343 (Simulation time: 1 hr 8 min 54 sec) 
Heartbeat CPU 0 instructions: 810000000 cycles: 722464797 heartbeat IPC: 0.880659 cumulative IPC: 0.917699 (Simulation time: 1 hr 9 min 54 sec) 
Heartbeat CPU 0 instructions: 820000003 cycles: 736460441 heartbeat IPC: 0.714508 cumulative IPC: 0.913509 (Simulation time: 1 hr 10 min 51 sec) 
Heartbeat CPU 0 instructions: 830000000 cycles: 748960958 heartbeat IPC: 0.799967 cumulative IPC: 0.911456 (Simulation time: 1 hr 11 min 50 sec) 
Heartbeat CPU 0 instructions: 840000001 cycles: 761950752 heartbeat IPC: 0.769835 cumulative IPC: 0.908843 (Simulation time: 1 hr 12 min 45 sec) 
Heartbeat CPU 0 instructions: 850000001 cycles: 773368325 heartbeat IPC: 0.875843 cumulative IPC: 0.908317 (Simulation time: 1 hr 13 min 36 sec) 
Heartbeat CPU 0 instructions: 860000003 cycles: 785485307 heartbeat IPC: 0.825288 cumulative IPC: 0.906934 (Simulation time: 1 hr 14 min 37 sec) 
Heartbeat CPU 0 instructions: 870000001 cycles: 797701130 heartbeat IPC: 0.81861 cumulative IPC: 0.905476 (Simulation time: 1 hr 15 min 29 sec) 
Heartbeat CPU 0 instructions: 880000000 cycles: 808716207 heartbeat IPC: 0.907847 cumulative IPC: 0.905511 (Simulation time: 1 hr 16 min 19 sec) 
Heartbeat CPU 0 instructions: 890000001 cycles: 819321694 heartbeat IPC: 0.942908 cumulative IPC: 0.906032 (Simulation time: 1 hr 17 min 18 sec) 
Heartbeat CPU 0 instructions: 900000001 cycles: 833529254 heartbeat IPC: 0.703851 cumulative IPC: 0.902329 (Simulation time: 1 hr 18 min 18 sec) 
Heartbeat CPU 0 instructions: 910000000 cycles: 845460728 heartbeat IPC: 0.838119 cumulative IPC: 0.901356 (Simulation time: 1 hr 19 min 10 sec) 
Heartbeat CPU 0 instructions: 920000004 cycles: 856390604 heartbeat IPC: 0.914924 cumulative IPC: 0.901542 (Simulation time: 1 hr 20 min 1 sec) 
Heartbeat CPU 0 instructions: 930000000 cycles: 866009023 heartbeat IPC: 1.03967 cumulative IPC: 0.903186 (Simulation time: 1 hr 20 min 55 sec) 
Heartbeat CPU 0 instructions: 940000001 cycles: 879199950 heartbeat IPC: 0.758097 cumulative IPC: 0.900856 (Simulation time: 1 hr 21 min 58 sec) 
Heartbeat CPU 0 instructions: 950000001 cycles: 891290450 heartbeat IPC: 0.827096 cumulative IPC: 0.899786 (Simulation time: 1 hr 22 min 50 sec) 
Heartbeat CPU 0 instructions: 960000001 cycles: 904002317 heartbeat IPC: 0.786667 cumulative IPC: 0.898087 (Simulation time: 1 hr 23 min 49 sec) 
Heartbeat CPU 0 instructions: 970000003 cycles: 915570079 heartbeat IPC: 0.864472 cumulative IPC: 0.897634 (Simulation time: 1 hr 24 min 41 sec) 
Heartbeat CPU 0 instructions: 980000000 cycles: 926212120 heartbeat IPC: 0.939669 cumulative IPC: 0.898149 (Simulation time: 1 hr 25 min 31 sec) 
Heartbeat CPU 0 instructions: 990000001 cycles: 936378048 heartbeat IPC: 0.983678 cumulative IPC: 0.899138 (Simulation time: 1 hr 26 min 22 sec) 
Heartbeat CPU 0 instructions: 1000000003 cycles: 944902335 heartbeat IPC: 1.17312 cumulative IPC: 0.901771 (Simulation time: 1 hr 27 min 15 sec) 
Heartbeat CPU 0 instructions: 1010000001 cycles: 954330811 heartbeat IPC: 1.06062 cumulative IPC: 0.903441 (Simulation time: 1 hr 28 min 11 sec) 
Heartbeat CPU 0 instructions: 1020000001 cycles: 968789839 heartbeat IPC: 0.691609 cumulative IPC: 0.900079 (Simulation time: 1 hr 29 min 14 sec) 
Heartbeat CPU 0 instructions: 1030000000 cycles: 980943581 heartbeat IPC: 0.822792 cumulative IPC: 0.899062 (Simulation time: 1 hr 30 min 5 sec) 
Heartbeat CPU 0 instructions: 1040000000 cycles: 992047590 heartbeat IPC: 0.900576 cumulative IPC: 0.89908 (Simulation time: 1 hr 30 min 56 sec) 
Heartbeat CPU 0 instructions: 1050000001 cycles: 1004064080 heartbeat IPC: 0.83219 cumulative IPC: 0.89823 (Simulation time: 1 hr 31 min 57 sec) 
Heartbeat CPU 0 instructions: 1060000001 cycles: 1016546803 heartbeat IPC: 0.801107 cumulative IPC: 0.896966 (Simulation time: 1 hr 32 min 49 sec) 
Heartbeat CPU 0 instructions: 1070000001 cycles: 1027617443 heartbeat IPC: 0.90329 cumulative IPC: 0.897038 (Simulation time: 1 hr 33 min 39 sec) 
Heartbeat CPU 0 instructions: 1080000001 cycles: 1037617109 heartbeat IPC: 1.00003 cumulative IPC: 0.898089 (Simulation time: 1 hr 34 min 36 sec) 
Heartbeat CPU 0 instructions: 1090000004 cycles: 1051542960 heartbeat IPC: 0.718089 cumulative IPC: 0.895567 (Simulation time: 1 hr 35 min 35 sec) 
Heartbeat CPU 0 instructions: 1100000000 cycles: 1063117048 heartbeat IPC: 0.863999 cumulative IPC: 0.895203 (Simulation time: 1 hr 36 min 26 sec) 
Heartbeat CPU 0 instructions: 1110000004 cycles: 1073747276 heartbeat IPC: 0.940714 cumulative IPC: 0.89568 (Simulation time: 1 hr 37 min 17 sec) 
Heartbeat CPU 0 instructions: 1120000000 cycles: 1084975050 heartbeat IPC: 0.890648 cumulative IPC: 0.895625 (Simulation time: 1 hr 38 min 17 sec) 
Heartbeat CPU 0 instructions: 1130000000 cycles: 1098164266 heartbeat IPC: 0.758195 cumulative IPC: 0.893882 (Simulation time: 1 hr 39 min 12 sec) 
Heartbeat CPU 0 instructions: 1140000000 cycles: 1109224532 heartbeat IPC: 0.904137 cumulative IPC: 0.89399 (Simulation time: 1 hr 40 min 2 sec) 
Heartbeat CPU 0 instructions: 1150000000 cycles: 1119699131 heartbeat IPC: 0.95469 cumulative IPC: 0.894589 (Simulation time: 1 hr 40 min 52 sec) 
Heartbeat CPU 0 instructions: 1160000003 cycles: 1128492333 heartbeat IPC: 1.13724 cumulative IPC: 0.896582 (Simulation time: 1 hr 41 min 46 sec) 
Heartbeat CPU 0 instructions: 1170000002 cycles: 1139207187 heartbeat IPC: 0.933284 cumulative IPC: 0.896945 (Simulation time: 1 hr 42 min 44 sec) 
Heartbeat CPU 0 instructions: 1180000001 cycles: 1153457342 heartbeat IPC: 0.701747 cumulative IPC: 0.894407 (Simulation time: 1 hr 43 min 42 sec) 
Heartbeat CPU 0 instructions: 1190000001 cycles: 1165955455 heartbeat IPC: 0.800121 cumulative IPC: 0.893343 (Simulation time: 1 hr 44 min 40 sec) 
Heartbeat CPU 0 instructions: 1200000001 cycles: 1177869800 heartbeat IPC: 0.839324 cumulative IPC: 0.892769 (Simulation time: 1 hr 45 min 31 sec) 
Finished CPU 0 instructions: 1000000000 cycles: 1120110782 cumulative IPC: 0.892769 (Simulation time: 1 hr 45 min 31 sec) 

ChampSim completed all CPUs

Region of Interest Statistics

CPU 0 cumulative IPC: 0.892769 instructions: 1000000000 cycles: 1120110782
cpu0_DTLB TOTAL     ACCESS:  157462510  HIT:  130430002  MISS:   27032508
cpu0_DTLB LOAD      ACCESS:  123901798  HIT:   97377997  MISS:   26523801
cpu0_DTLB RFO       ACCESS:   33560712  HIT:   33052005  MISS:     508707
cpu0_DTLB PREFETCH  ACCESS:          0  HIT:          0  MISS:          0
cpu0_DTLB WRITEBACK ACCESS:          0  HIT:          0  MISS:          0
cpu0_DTLB TRANSLATION ACCESS:          0  HIT:          0  MISS:          0
cpu0_DTLB PREFETCH  REQUESTED:          0  ISSUED:          0  USEFUL:          0  USELESS:          0
cpu0_DTLB AVERAGE MISS LATENCY: 11.0278 cycles
cpu0_ITLB TOTAL     ACCESS:   57501630  HIT:   57137332  MISS:     364298
cpu0_ITLB LOAD      ACCESS:   57501630  HIT:   57137332  MISS:     364298
cpu0_ITLB RFO       ACCESS:          0  HIT:          0  MISS:          0
cpu0_ITLB PREFETCH  ACCESS:          0  HIT:          0  MISS:          0
cpu0_ITLB WRITEBACK ACCESS:          0  HIT:          0  MISS:          0
cpu0_ITLB TRANSLATION ACCESS:          0  HIT:          0  MISS:          0
cpu0_ITLB PREFETCH  REQUESTED:          0  ISSUED:          0  USEFUL:          0  USELESS:          0
cpu0_ITLB AVERAGE MISS LATENCY: 11.0105 cycles
cpu0_L1I TOTAL     ACCESS:   45150465  HIT:   43602119  MISS:    1548346
cpu0_L1I LOAD      ACCESS:   45150465  HIT:   43602119  MISS:    1548346
cpu0_L1I RFO       ACCESS:          0  HIT:          0  MISS:          0
cpu0_L1I PREFETCH  ACCESS:          0  HIT:          0  MISS:          0
cpu0_L1I WRITEBACK ACCESS:          0  HIT:          0  MISS:          0
cpu0_L1I TRANSLATION ACCESS:          0  HIT:          0  MISS:          0
cpu0_L1I PREFETCH  REQUESTED:          0  ISSUED:          0  USEFUL:          0  USELESS:          0
cpu0_L1I AVERAGE MISS LATENCY: 14.5119 cycles
cpu0_STLB TOTAL     ACCESS:   27396806  HIT:   27393646  MISS:       3160
cpu0_STLB LOAD      ACCESS:   26888099  HIT:   26887067  MISS:       1032
cpu0_STLB RFO       ACCESS:     508707  HIT:     506579  MISS:       2128
cpu0_STLB PREFETCH  ACCESS:          0  HIT:          0  MISS:          0
cpu0_STLB WRITEBACK ACCESS:          0  HIT:          0  MISS:          0
cpu0_STLB TRANSLATION ACCESS:          0  HIT:          0  MISS:          0
cpu0_STLB PREFETCH  REQUESTED:          0  ISSUED:          0  USEFUL:          0  USELESS:          0
cpu0_STLB AVERAGE MISS LATENCY: 186.475 cycles
cpu0_L1D TOTAL     ACCESS:  204026538  HIT:  157703468  MISS:   46323070
cpu0_L1D LOAD      ACCESS:  141649228  HIT:   96827587  MISS:   44821641
cpu0_L1D RFO       ACCESS:   62374204  HIT:   60874887  MISS:    1499317
cpu0_L1D PREFETCH  ACCESS:          0  HIT:          0  MISS:          0
cpu0_L1D WRITEBACK ACCESS:          0  HIT:          0  MISS:          0
cpu0_L1D TRANSLATION ACCESS:       3106  HIT:        994  MISS:       2112
cpu0_L1D PREFETCH  REQUESTED:          0  ISSUED:          0  USEFUL:          0  USELESS:          0
cpu0_L1D AVERAGE MISS LATENCY: 17.6747 cycles
cpu0_L2C TOTAL     ACCESS:   54737926  HIT:   50959464  MISS:    3778462
cpu0_L2C LOAD      ACCESS:   46369873  HIT:   44173953  MISS:    2195920
cpu0_L2C RFO       ACCESS:    1499294  HIT:     265944  MISS:    1233350
cpu0_L2C PREFETCH  ACCESS:    4538989  HIT:    4190288  MISS:     348701
cpu0_L2C WRITEBACK ACCESS:    2327658  HIT:    2327638  MISS:         20
cpu0_L2C TRANSLATION ACCESS:       2112  HIT:       1641  MISS:        471
cpu0_L2C PREFETCH  REQUESTED:    5781210  ISSUED:    4872886  USEFUL:     226371  USELESS:     149074
cpu0_L2C AVERAGE MISS LATENCY: 86.1397 cycles
LLC TOTAL     ACCESS:    5468097  HIT:    4074664  MISS:    1393433
LLC LOAD      ACCESS:    2170990  HIT:    1935262  MISS:     235728
LLC RFO       ACCESS:    1231832  HIT:     174817  MISS:    1057015
LLC PREFETCH  ACCESS:     569888  HIT:     479116  MISS:      90772
LLC WRITEBACK ACCESS:    1494916  HIT:    1485118  MISS:       9798
LLC TRANSLATION ACCESS:        471  HIT:        351  MISS:        120
LLC PREFETCH  REQUESTED:          0  ISSUED:          0  USEFUL:          0  USELESS:          0
LLC AVERAGE MISS LATENCY: 182.179 cycles
Printing the final status 

DRAM Statistics
 CHANNEL 0
 RQ ROW_BUFFER_HIT:     563739  ROW_BUFFER_MISS:     819879
 DBUS AVG_CONGESTED_CYCLE:      3.951
 WQ ROW_BUFFER_HIT:     148199  ROW_BUFFER_MISS:    1067328  FULL:          0


CPU 0 Branch Prediction Accuracy: 97.1414% MPKI: 8.19974 Average ROB Occupancy at Mispredict: 37.8592
Branch type MPKI
BRANCH_DIRECT_JUMP: 2.5e-05
BRANCH_INDIRECT: 0.335423
BRANCH_CONDITIONAL: 6.54277
BRANCH_DIRECT_CALL: 0.000181
BRANCH_INDIRECT_CALL: 0.257476
BRANCH_RETURN: 1.06386

***************** Done with 623.xalancbmk_s-700B.champsimtrace.xz using ppf-spp-dev-3, on Wed Apr 20 18:55:38 CDT 2022 ******************
