Started running file 649.fotonik3d_s-1176B.champsimtrace.xz at time Wed Apr 20 16:49:01 CDT 2022 with prefetcher ppf-spp-dev-3

*** ChampSim Multicore Out-of-Order Simulator ***

Warmup Instructions: 200000000
Simulation Instructions: 1000000000
Number of CPUs: 1
Off-chip DRAM Size: 4 GiB Channels: 1 Width: 64-bit Data Rate: 3200 MT/s

VirtualMemory physical capacity: 8588881920 num_ppages: 2096895
VirtualMemory page size: 4096 log2_page_size: 12

CPU 0 runs /home/faculty/p/pgratz/dpc3_traces/649.fotonik3d_s-1176B.champsimtrace.xz
CPU 0 Bimodal branch predictor
Basic BTB sets: 1024 ways: 8 indirect buffer size: 4096 RAS size: 64
cpu0_L2C PPF SPP DEV Prefetcher
Heartbeat CPU 0 instructions: 10000001 cycles: 3507808 heartbeat IPC: 2.85078 cumulative IPC: 2.85078 (Simulation time: 0 hr 0 min 43 sec) 
Heartbeat CPU 0 instructions: 20000001 cycles: 7015497 heartbeat IPC: 2.85088 cumulative IPC: 2.85083 (Simulation time: 0 hr 1 min 26 sec) 
Heartbeat CPU 0 instructions: 30000000 cycles: 10523177 heartbeat IPC: 2.85089 cumulative IPC: 2.85085 (Simulation time: 0 hr 2 min 8 sec) 
Heartbeat CPU 0 instructions: 40000003 cycles: 14030862 heartbeat IPC: 2.85088 cumulative IPC: 2.85086 (Simulation time: 0 hr 2 min 51 sec) 
Heartbeat CPU 0 instructions: 50000001 cycles: 17538550 heartbeat IPC: 2.85088 cumulative IPC: 2.85086 (Simulation time: 0 hr 3 min 34 sec) 
Heartbeat CPU 0 instructions: 60000001 cycles: 21046285 heartbeat IPC: 2.85084 cumulative IPC: 2.85086 (Simulation time: 0 hr 4 min 16 sec) 
Heartbeat CPU 0 instructions: 70000004 cycles: 24553967 heartbeat IPC: 2.85089 cumulative IPC: 2.85086 (Simulation time: 0 hr 4 min 59 sec) 
Heartbeat CPU 0 instructions: 80000002 cycles: 28061651 heartbeat IPC: 2.85088 cumulative IPC: 2.85087 (Simulation time: 0 hr 5 min 42 sec) 
Heartbeat CPU 0 instructions: 90000003 cycles: 31569339 heartbeat IPC: 2.85088 cumulative IPC: 2.85087 (Simulation time: 0 hr 6 min 24 sec) 
Heartbeat CPU 0 instructions: 100000001 cycles: 35077027 heartbeat IPC: 2.85088 cumulative IPC: 2.85087 (Simulation time: 0 hr 7 min 7 sec) 
Heartbeat CPU 0 instructions: 110000001 cycles: 38584711 heartbeat IPC: 2.85088 cumulative IPC: 2.85087 (Simulation time: 0 hr 7 min 50 sec) 
Heartbeat CPU 0 instructions: 120000003 cycles: 42092395 heartbeat IPC: 2.85088 cumulative IPC: 2.85087 (Simulation time: 0 hr 8 min 33 sec) 
Heartbeat CPU 0 instructions: 130000003 cycles: 45600080 heartbeat IPC: 2.85088 cumulative IPC: 2.85087 (Simulation time: 0 hr 9 min 15 sec) 
Heartbeat CPU 0 instructions: 140000001 cycles: 49107765 heartbeat IPC: 2.85088 cumulative IPC: 2.85087 (Simulation time: 0 hr 9 min 58 sec) 
Heartbeat CPU 0 instructions: 150000002 cycles: 52615450 heartbeat IPC: 2.85088 cumulative IPC: 2.85087 (Simulation time: 0 hr 10 min 41 sec) 
Heartbeat CPU 0 instructions: 160000002 cycles: 56123135 heartbeat IPC: 2.85088 cumulative IPC: 2.85087 (Simulation time: 0 hr 11 min 23 sec) 
Heartbeat CPU 0 instructions: 170000000 cycles: 59630869 heartbeat IPC: 2.85084 cumulative IPC: 2.85087 (Simulation time: 0 hr 12 min 6 sec) 
Heartbeat CPU 0 instructions: 180000000 cycles: 63138553 heartbeat IPC: 2.85088 cumulative IPC: 2.85087 (Simulation time: 0 hr 12 min 49 sec) 
Heartbeat CPU 0 instructions: 190000004 cycles: 66646239 heartbeat IPC: 2.85088 cumulative IPC: 2.85087 (Simulation time: 0 hr 13 min 32 sec) 
Heartbeat CPU 0 instructions: 200000003 cycles: 70153923 heartbeat IPC: 2.85088 cumulative IPC: 2.85087 (Simulation time: 0 hr 14 min 14 sec) 

Warmup complete CPU 0 instructions: 200000003 cycles: 70153923 (Simulation time: 0 hr 14 min 14 sec) 

Heartbeat CPU 0 instructions: 210000002 cycles: 75652006 heartbeat IPC: 1.81882 cumulative IPC: 1.81882 (Simulation time: 0 hr 15 min 9 sec) 
Heartbeat CPU 0 instructions: 220000000 cycles: 81092975 heartbeat IPC: 1.83791 cumulative IPC: 1.82831 (Simulation time: 0 hr 16 min 4 sec) 
Heartbeat CPU 0 instructions: 230000004 cycles: 86601846 heartbeat IPC: 1.81525 cumulative IPC: 1.82394 (Simulation time: 0 hr 16 min 59 sec) 
Heartbeat CPU 0 instructions: 240000000 cycles: 92071811 heartbeat IPC: 1.82816 cumulative IPC: 1.82499 (Simulation time: 0 hr 17 min 54 sec) 
Heartbeat CPU 0 instructions: 250000001 cycles: 97567593 heartbeat IPC: 1.81958 cumulative IPC: 1.82391 (Simulation time: 0 hr 18 min 49 sec) 
Heartbeat CPU 0 instructions: 260000001 cycles: 103063236 heartbeat IPC: 1.81962 cumulative IPC: 1.82319 (Simulation time: 0 hr 19 min 44 sec) 
Heartbeat CPU 0 instructions: 270000002 cycles: 108907179 heartbeat IPC: 1.71117 cumulative IPC: 1.8063 (Simulation time: 0 hr 20 min 36 sec) 
Heartbeat CPU 0 instructions: 280000001 cycles: 114845605 heartbeat IPC: 1.68395 cumulative IPC: 1.79004 (Simulation time: 0 hr 21 min 27 sec) 
Heartbeat CPU 0 instructions: 290000001 cycles: 120367922 heartbeat IPC: 1.81083 cumulative IPC: 1.79233 (Simulation time: 0 hr 22 min 22 sec) 
Heartbeat CPU 0 instructions: 300000001 cycles: 125874284 heartbeat IPC: 1.81608 cumulative IPC: 1.79468 (Simulation time: 0 hr 23 min 17 sec) 
Heartbeat CPU 0 instructions: 310000001 cycles: 131367679 heartbeat IPC: 1.82037 cumulative IPC: 1.79698 (Simulation time: 0 hr 24 min 12 sec) 
Heartbeat CPU 0 instructions: 320000003 cycles: 136851486 heartbeat IPC: 1.82355 cumulative IPC: 1.79917 (Simulation time: 0 hr 25 min 6 sec) 
Heartbeat CPU 0 instructions: 330000002 cycles: 142379558 heartbeat IPC: 1.80895 cumulative IPC: 1.79991 (Simulation time: 0 hr 26 min 2 sec) 
Heartbeat CPU 0 instructions: 340000002 cycles: 147864500 heartbeat IPC: 1.82317 cumulative IPC: 1.80156 (Simulation time: 0 hr 26 min 56 sec) 
Heartbeat CPU 0 instructions: 350000004 cycles: 153388481 heartbeat IPC: 1.81029 cumulative IPC: 1.80214 (Simulation time: 0 hr 27 min 51 sec) 
Heartbeat CPU 0 instructions: 360000000 cycles: 158918225 heartbeat IPC: 1.8084 cumulative IPC: 1.80253 (Simulation time: 0 hr 28 min 46 sec) 
Heartbeat CPU 0 instructions: 370000000 cycles: 164461186 heartbeat IPC: 1.80409 cumulative IPC: 1.80262 (Simulation time: 0 hr 29 min 42 sec) 
Heartbeat CPU 0 instructions: 380000000 cycles: 169954259 heartbeat IPC: 1.82047 cumulative IPC: 1.8036 (Simulation time: 0 hr 30 min 37 sec) 
Heartbeat CPU 0 instructions: 390000004 cycles: 175478935 heartbeat IPC: 1.81006 cumulative IPC: 1.80394 (Simulation time: 0 hr 31 min 32 sec) 
Heartbeat CPU 0 instructions: 400000001 cycles: 180917064 heartbeat IPC: 1.83887 cumulative IPC: 1.80565 (Simulation time: 0 hr 32 min 26 sec) 
Heartbeat CPU 0 instructions: 410000002 cycles: 186350934 heartbeat IPC: 1.84031 cumulative IPC: 1.80728 (Simulation time: 0 hr 33 min 20 sec) 
Heartbeat CPU 0 instructions: 420000001 cycles: 191849503 heartbeat IPC: 1.81865 cumulative IPC: 1.80779 (Simulation time: 0 hr 34 min 15 sec) 
Heartbeat CPU 0 instructions: 430000003 cycles: 197331142 heartbeat IPC: 1.82427 cumulative IPC: 1.8085 (Simulation time: 0 hr 35 min 10 sec) 
Heartbeat CPU 0 instructions: 440000002 cycles: 202836288 heartbeat IPC: 1.81648 cumulative IPC: 1.80883 (Simulation time: 0 hr 36 min 5 sec) 
Heartbeat CPU 0 instructions: 450000004 cycles: 208355169 heartbeat IPC: 1.81196 cumulative IPC: 1.80896 (Simulation time: 0 hr 37 min 0 sec) 
Heartbeat CPU 0 instructions: 460000004 cycles: 213815491 heartbeat IPC: 1.83139 cumulative IPC: 1.80981 (Simulation time: 0 hr 37 min 54 sec) 
Heartbeat CPU 0 instructions: 470000000 cycles: 219329503 heartbeat IPC: 1.81356 cumulative IPC: 1.80995 (Simulation time: 0 hr 38 min 49 sec) 
Heartbeat CPU 0 instructions: 480000002 cycles: 224891997 heartbeat IPC: 1.79776 cumulative IPC: 1.80951 (Simulation time: 0 hr 39 min 44 sec) 
Heartbeat CPU 0 instructions: 490000002 cycles: 230398822 heartbeat IPC: 1.81593 cumulative IPC: 1.80973 (Simulation time: 0 hr 40 min 39 sec) 
Heartbeat CPU 0 instructions: 500000003 cycles: 235865211 heartbeat IPC: 1.82936 cumulative IPC: 1.81038 (Simulation time: 0 hr 41 min 33 sec) 
Heartbeat CPU 0 instructions: 510000000 cycles: 241336368 heartbeat IPC: 1.82777 cumulative IPC: 1.81093 (Simulation time: 0 hr 42 min 28 sec) 
Heartbeat CPU 0 instructions: 520000004 cycles: 246800987 heartbeat IPC: 1.82995 cumulative IPC: 1.81152 (Simulation time: 0 hr 43 min 23 sec) 
Heartbeat CPU 0 instructions: 530000000 cycles: 252250253 heartbeat IPC: 1.83511 cumulative IPC: 1.81223 (Simulation time: 0 hr 44 min 17 sec) 
Heartbeat CPU 0 instructions: 540000003 cycles: 257770680 heartbeat IPC: 1.81145 cumulative IPC: 1.8122 (Simulation time: 0 hr 45 min 12 sec) 
Heartbeat CPU 0 instructions: 550000003 cycles: 263256204 heartbeat IPC: 1.82298 cumulative IPC: 1.81251 (Simulation time: 0 hr 46 min 7 sec) 
Heartbeat CPU 0 instructions: 560000000 cycles: 268732852 heartbeat IPC: 1.82593 cumulative IPC: 1.81288 (Simulation time: 0 hr 47 min 2 sec) 
Heartbeat CPU 0 instructions: 570000001 cycles: 274280679 heartbeat IPC: 1.80251 cumulative IPC: 1.8126 (Simulation time: 0 hr 47 min 57 sec) 
Heartbeat CPU 0 instructions: 580000003 cycles: 279758696 heartbeat IPC: 1.82548 cumulative IPC: 1.81294 (Simulation time: 0 hr 48 min 51 sec) 
Heartbeat CPU 0 instructions: 590000000 cycles: 285236499 heartbeat IPC: 1.82555 cumulative IPC: 1.81326 (Simulation time: 0 hr 49 min 46 sec) 
Heartbeat CPU 0 instructions: 600000004 cycles: 290793702 heartbeat IPC: 1.79947 cumulative IPC: 1.81291 (Simulation time: 0 hr 50 min 41 sec) 
Heartbeat CPU 0 instructions: 610000001 cycles: 296343064 heartbeat IPC: 1.80201 cumulative IPC: 1.81264 (Simulation time: 0 hr 51 min 36 sec) 
Heartbeat CPU 0 instructions: 620000002 cycles: 301804638 heartbeat IPC: 1.83097 cumulative IPC: 1.81307 (Simulation time: 0 hr 52 min 31 sec) 
Heartbeat CPU 0 instructions: 630000002 cycles: 307264513 heartbeat IPC: 1.83154 cumulative IPC: 1.8135 (Simulation time: 0 hr 53 min 25 sec) 
Heartbeat CPU 0 instructions: 640000001 cycles: 312760009 heartbeat IPC: 1.81967 cumulative IPC: 1.81364 (Simulation time: 0 hr 54 min 20 sec) 
Heartbeat CPU 0 instructions: 650000002 cycles: 318272039 heartbeat IPC: 1.81421 cumulative IPC: 1.81365 (Simulation time: 0 hr 55 min 15 sec) 
Heartbeat CPU 0 instructions: 660000000 cycles: 323782326 heartbeat IPC: 1.81479 cumulative IPC: 1.81368 (Simulation time: 0 hr 56 min 10 sec) 
Heartbeat CPU 0 instructions: 670000004 cycles: 329327747 heartbeat IPC: 1.80329 cumulative IPC: 1.81345 (Simulation time: 0 hr 57 min 5 sec) 
Heartbeat CPU 0 instructions: 680000004 cycles: 334769453 heartbeat IPC: 1.83766 cumulative IPC: 1.81395 (Simulation time: 0 hr 57 min 59 sec) 
Heartbeat CPU 0 instructions: 690000000 cycles: 340238308 heartbeat IPC: 1.82854 cumulative IPC: 1.81425 (Simulation time: 0 hr 58 min 54 sec) 
Heartbeat CPU 0 instructions: 700000001 cycles: 345732935 heartbeat IPC: 1.81996 cumulative IPC: 1.81436 (Simulation time: 0 hr 59 min 49 sec) 
Heartbeat CPU 0 instructions: 710000002 cycles: 351150892 heartbeat IPC: 1.84571 cumulative IPC: 1.81497 (Simulation time: 1 hr 0 min 43 sec) 
Heartbeat CPU 0 instructions: 720000002 cycles: 356696192 heartbeat IPC: 1.80333 cumulative IPC: 1.81474 (Simulation time: 1 hr 1 min 39 sec) 
Heartbeat CPU 0 instructions: 730000000 cycles: 362196027 heartbeat IPC: 1.81824 cumulative IPC: 1.81481 (Simulation time: 1 hr 2 min 34 sec) 
Heartbeat CPU 0 instructions: 740000000 cycles: 367655997 heartbeat IPC: 1.83151 cumulative IPC: 1.81511 (Simulation time: 1 hr 3 min 29 sec) 
Heartbeat CPU 0 instructions: 750000004 cycles: 373135672 heartbeat IPC: 1.82493 cumulative IPC: 1.81529 (Simulation time: 1 hr 4 min 24 sec) 
Heartbeat CPU 0 instructions: 760000002 cycles: 378649596 heartbeat IPC: 1.81359 cumulative IPC: 1.81526 (Simulation time: 1 hr 5 min 20 sec) 
Heartbeat CPU 0 instructions: 770000003 cycles: 384098668 heartbeat IPC: 1.83518 cumulative IPC: 1.81561 (Simulation time: 1 hr 6 min 15 sec) 
Heartbeat CPU 0 instructions: 780000002 cycles: 389584351 heartbeat IPC: 1.82293 cumulative IPC: 1.81573 (Simulation time: 1 hr 7 min 10 sec) 
Heartbeat CPU 0 instructions: 790000002 cycles: 395111306 heartbeat IPC: 1.80931 cumulative IPC: 1.81562 (Simulation time: 1 hr 8 min 5 sec) 
Heartbeat CPU 0 instructions: 800000003 cycles: 400627145 heartbeat IPC: 1.81296 cumulative IPC: 1.81558 (Simulation time: 1 hr 9 min 1 sec) 
Heartbeat CPU 0 instructions: 810000000 cycles: 406134037 heartbeat IPC: 1.81591 cumulative IPC: 1.81558 (Simulation time: 1 hr 9 min 56 sec) 
Heartbeat CPU 0 instructions: 820000002 cycles: 411655289 heartbeat IPC: 1.81118 cumulative IPC: 1.81551 (Simulation time: 1 hr 10 min 51 sec) 
Heartbeat CPU 0 instructions: 830000003 cycles: 417100939 heartbeat IPC: 1.83633 cumulative IPC: 1.81584 (Simulation time: 1 hr 11 min 46 sec) 
Heartbeat CPU 0 instructions: 840000003 cycles: 422544492 heartbeat IPC: 1.83704 cumulative IPC: 1.81617 (Simulation time: 1 hr 12 min 41 sec) 
Heartbeat CPU 0 instructions: 850000002 cycles: 428045444 heartbeat IPC: 1.81787 cumulative IPC: 1.81619 (Simulation time: 1 hr 13 min 36 sec) 
Heartbeat CPU 0 instructions: 860000002 cycles: 433552496 heartbeat IPC: 1.81585 cumulative IPC: 1.81619 (Simulation time: 1 hr 14 min 31 sec) 
Heartbeat CPU 0 instructions: 870000000 cycles: 439068942 heartbeat IPC: 1.81276 cumulative IPC: 1.81614 (Simulation time: 1 hr 15 min 26 sec) 
Heartbeat CPU 0 instructions: 880000004 cycles: 444553753 heartbeat IPC: 1.82322 cumulative IPC: 1.81624 (Simulation time: 1 hr 16 min 20 sec) 
Heartbeat CPU 0 instructions: 890000003 cycles: 450014121 heartbeat IPC: 1.83138 cumulative IPC: 1.81646 (Simulation time: 1 hr 17 min 15 sec) 
Heartbeat CPU 0 instructions: 900000001 cycles: 455472463 heartbeat IPC: 1.83206 cumulative IPC: 1.81668 (Simulation time: 1 hr 18 min 10 sec) 
Heartbeat CPU 0 instructions: 910000001 cycles: 460994957 heartbeat IPC: 1.81078 cumulative IPC: 1.8166 (Simulation time: 1 hr 19 min 6 sec) 
Heartbeat CPU 0 instructions: 920000003 cycles: 466521787 heartbeat IPC: 1.80936 cumulative IPC: 1.81649 (Simulation time: 1 hr 20 min 1 sec) 
Heartbeat CPU 0 instructions: 930000003 cycles: 472035277 heartbeat IPC: 1.81373 cumulative IPC: 1.81646 (Simulation time: 1 hr 20 min 56 sec) 
Heartbeat CPU 0 instructions: 940000002 cycles: 477537741 heartbeat IPC: 1.81737 cumulative IPC: 1.81647 (Simulation time: 1 hr 21 min 51 sec) 
Heartbeat CPU 0 instructions: 950000000 cycles: 483002510 heartbeat IPC: 1.8299 cumulative IPC: 1.81665 (Simulation time: 1 hr 22 min 46 sec) 
Heartbeat CPU 0 instructions: 960000000 cycles: 488574022 heartbeat IPC: 1.79484 cumulative IPC: 1.81636 (Simulation time: 1 hr 23 min 41 sec) 
Heartbeat CPU 0 instructions: 970000004 cycles: 494063542 heartbeat IPC: 1.82165 cumulative IPC: 1.81642 (Simulation time: 1 hr 24 min 35 sec) 
Heartbeat CPU 0 instructions: 980000001 cycles: 499576600 heartbeat IPC: 1.81387 cumulative IPC: 1.81639 (Simulation time: 1 hr 25 min 30 sec) 
Heartbeat CPU 0 instructions: 990000003 cycles: 505037802 heartbeat IPC: 1.8311 cumulative IPC: 1.81658 (Simulation time: 1 hr 26 min 25 sec) 
Heartbeat CPU 0 instructions: 1000000002 cycles: 510499383 heartbeat IPC: 1.83097 cumulative IPC: 1.81676 (Simulation time: 1 hr 27 min 20 sec) 
Heartbeat CPU 0 instructions: 1010000004 cycles: 515988561 heartbeat IPC: 1.82177 cumulative IPC: 1.81682 (Simulation time: 1 hr 28 min 14 sec) 
Heartbeat CPU 0 instructions: 1020000002 cycles: 521404297 heartbeat IPC: 1.84647 cumulative IPC: 1.81717 (Simulation time: 1 hr 29 min 9 sec) 
Heartbeat CPU 0 instructions: 1030000004 cycles: 526907892 heartbeat IPC: 1.81699 cumulative IPC: 1.81717 (Simulation time: 1 hr 30 min 4 sec) 
Heartbeat CPU 0 instructions: 1040000000 cycles: 532389216 heartbeat IPC: 1.82438 cumulative IPC: 1.81726 (Simulation time: 1 hr 30 min 58 sec) 
Heartbeat CPU 0 instructions: 1050000002 cycles: 537836421 heartbeat IPC: 1.8358 cumulative IPC: 1.81747 (Simulation time: 1 hr 31 min 53 sec) 
Heartbeat CPU 0 instructions: 1060000004 cycles: 543328785 heartbeat IPC: 1.82071 cumulative IPC: 1.81751 (Simulation time: 1 hr 32 min 48 sec) 
Heartbeat CPU 0 instructions: 1070000003 cycles: 548858608 heartbeat IPC: 1.80838 cumulative IPC: 1.8174 (Simulation time: 1 hr 33 min 43 sec) 
Heartbeat CPU 0 instructions: 1080000002 cycles: 554369444 heartbeat IPC: 1.81461 cumulative IPC: 1.81737 (Simulation time: 1 hr 34 min 37 sec) 
Heartbeat CPU 0 instructions: 1090000002 cycles: 559852284 heartbeat IPC: 1.82387 cumulative IPC: 1.81745 (Simulation time: 1 hr 35 min 32 sec) 
Heartbeat CPU 0 instructions: 1100000002 cycles: 565381458 heartbeat IPC: 1.80859 cumulative IPC: 1.81735 (Simulation time: 1 hr 36 min 27 sec) 
Heartbeat CPU 0 instructions: 1110000001 cycles: 570906390 heartbeat IPC: 1.80998 cumulative IPC: 1.81727 (Simulation time: 1 hr 37 min 22 sec) 
Heartbeat CPU 0 instructions: 1120000004 cycles: 576365231 heartbeat IPC: 1.83189 cumulative IPC: 1.81742 (Simulation time: 1 hr 38 min 17 sec) 
Heartbeat CPU 0 instructions: 1130000002 cycles: 581873580 heartbeat IPC: 1.81543 cumulative IPC: 1.8174 (Simulation time: 1 hr 39 min 11 sec) 
Heartbeat CPU 0 instructions: 1140000003 cycles: 587369821 heartbeat IPC: 1.81943 cumulative IPC: 1.81742 (Simulation time: 1 hr 40 min 6 sec) 
Heartbeat CPU 0 instructions: 1150000004 cycles: 592793221 heartbeat IPC: 1.84386 cumulative IPC: 1.8177 (Simulation time: 1 hr 41 min 1 sec) 
Heartbeat CPU 0 instructions: 1160000002 cycles: 598331865 heartbeat IPC: 1.8055 cumulative IPC: 1.81757 (Simulation time: 1 hr 41 min 56 sec) 
Heartbeat CPU 0 instructions: 1170000001 cycles: 603840464 heartbeat IPC: 1.81534 cumulative IPC: 1.81755 (Simulation time: 1 hr 42 min 51 sec) 
Heartbeat CPU 0 instructions: 1180000000 cycles: 609345888 heartbeat IPC: 1.81639 cumulative IPC: 1.81753 (Simulation time: 1 hr 43 min 45 sec) 
Heartbeat CPU 0 instructions: 1190000000 cycles: 614826602 heartbeat IPC: 1.82458 cumulative IPC: 1.81761 (Simulation time: 1 hr 44 min 40 sec) 
Heartbeat CPU 0 instructions: 1200000004 cycles: 620319936 heartbeat IPC: 1.82039 cumulative IPC: 1.81763 (Simulation time: 1 hr 45 min 35 sec) 
Finished CPU 0 instructions: 1000000001 cycles: 550166013 cumulative IPC: 1.81763 (Simulation time: 1 hr 45 min 35 sec) 

ChampSim completed all CPUs

Region of Interest Statistics

CPU 0 cumulative IPC: 1.81763 instructions: 1000000001 cycles: 550166013
cpu0_DTLB TOTAL     ACCESS:  165079309  HIT:  164845707  MISS:     233602
cpu0_DTLB LOAD      ACCESS:  141216578  HIT:  140985180  MISS:     231398
cpu0_DTLB RFO       ACCESS:   23862731  HIT:   23860527  MISS:       2204
cpu0_DTLB PREFETCH  ACCESS:          0  HIT:          0  MISS:          0
cpu0_DTLB WRITEBACK ACCESS:          0  HIT:          0  MISS:          0
cpu0_DTLB TRANSLATION ACCESS:          0  HIT:          0  MISS:          0
cpu0_DTLB PREFETCH  REQUESTED:          0  ISSUED:          0  USEFUL:          0  USELESS:          0
cpu0_DTLB AVERAGE MISS LATENCY: 133.692 cycles
cpu0_ITLB TOTAL     ACCESS:     467962  HIT:     467951  MISS:         11
cpu0_ITLB LOAD      ACCESS:     467962  HIT:     467951  MISS:         11
cpu0_ITLB RFO       ACCESS:          0  HIT:          0  MISS:          0
cpu0_ITLB PREFETCH  ACCESS:          0  HIT:          0  MISS:          0
cpu0_ITLB WRITEBACK ACCESS:          0  HIT:          0  MISS:          0
cpu0_ITLB TRANSLATION ACCESS:          0  HIT:          0  MISS:          0
cpu0_ITLB PREFETCH  REQUESTED:          0  ISSUED:          0  USEFUL:          0  USELESS:          0
cpu0_ITLB AVERAGE MISS LATENCY: 204.455 cycles
cpu0_L1I TOTAL     ACCESS:     393008  HIT:     392731  MISS:        277
cpu0_L1I LOAD      ACCESS:     393008  HIT:     392731  MISS:        277
cpu0_L1I RFO       ACCESS:          0  HIT:          0  MISS:          0
cpu0_L1I PREFETCH  ACCESS:          0  HIT:          0  MISS:          0
cpu0_L1I WRITEBACK ACCESS:          0  HIT:          0  MISS:          0
cpu0_L1I TRANSLATION ACCESS:          0  HIT:          0  MISS:          0
cpu0_L1I PREFETCH  REQUESTED:          0  ISSUED:          0  USEFUL:          0  USELESS:          0
cpu0_L1I AVERAGE MISS LATENCY: 129.036 cycles
cpu0_STLB TOTAL     ACCESS:     233613  HIT:      96829  MISS:     136784
cpu0_STLB LOAD      ACCESS:     231409  HIT:      94625  MISS:     136784
cpu0_STLB RFO       ACCESS:       2204  HIT:       2204  MISS:          0
cpu0_STLB PREFETCH  ACCESS:          0  HIT:          0  MISS:          0
cpu0_STLB WRITEBACK ACCESS:          0  HIT:          0  MISS:          0
cpu0_STLB TRANSLATION ACCESS:          0  HIT:          0  MISS:          0
cpu0_STLB PREFETCH  REQUESTED:          0  ISSUED:          0  USEFUL:          0  USELESS:          0
cpu0_STLB AVERAGE MISS LATENCY: 209.526 cycles
cpu0_L1D TOTAL     ACCESS:  206819152  HIT:  193623335  MISS:   13195817
cpu0_L1D LOAD      ACCESS:  136421332  HIT:  123247424  MISS:   13173908
cpu0_L1D RFO       ACCESS:   70261038  HIT:   70243745  MISS:      17293
cpu0_L1D PREFETCH  ACCESS:          0  HIT:          0  MISS:          0
cpu0_L1D WRITEBACK ACCESS:          0  HIT:          0  MISS:          0
cpu0_L1D TRANSLATION ACCESS:     136782  HIT:     132166  MISS:       4616
cpu0_L1D PREFETCH  REQUESTED:          0  ISSUED:          0  USEFUL:          0  USELESS:          0
cpu0_L1D AVERAGE MISS LATENCY: 54.8575 cycles
cpu0_L2C TOTAL     ACCESS:   40685934  HIT:   31021705  MISS:    9664229
cpu0_L2C LOAD      ACCESS:   13174185  HIT:   10457871  MISS:    2716314
cpu0_L2C RFO       ACCESS:      17293  HIT:      12325  MISS:       4968
cpu0_L2C PREFETCH  ACCESS:   18733195  HIT:   11791595  MISS:    6941600
cpu0_L2C WRITEBACK ACCESS:    8756645  HIT:    8756645  MISS:          0
cpu0_L2C TRANSLATION ACCESS:       4616  HIT:       3269  MISS:       1347
cpu0_L2C PREFETCH  REQUESTED:   41761827  ISSUED:   39749068  USEFUL:    9074181  USELESS:      20690
cpu0_L2C AVERAGE MISS LATENCY: 230.023 cycles
LLC TOTAL     ACCESS:   20943861  HIT:   12049833  MISS:    8894028
LLC LOAD      ACCESS:     563030  HIT:      23918  MISS:     539112
LLC RFO       ACCESS:       4968  HIT:       4925  MISS:         43
LLC PREFETCH  ACCESS:   11632401  HIT:    3279442  MISS:    8352959
LLC WRITEBACK ACCESS:    8742115  HIT:    8740576  MISS:       1539
LLC TRANSLATION ACCESS:       1347  HIT:        972  MISS:        375
LLC PREFETCH  REQUESTED:          0  ISSUED:          0  USEFUL:          0  USELESS:          0
LLC AVERAGE MISS LATENCY: 523.664 cycles
Printing the final status 

DRAM Statistics
 CHANNEL 0
 RQ ROW_BUFFER_HIT:    2424421  ROW_BUFFER_MISS:    6468066
 DBUS AVG_CONGESTED_CYCLE:    3.99727
 WQ ROW_BUFFER_HIT:    1809953  ROW_BUFFER_MISS:    6927289  FULL:        106


CPU 0 Branch Prediction Accuracy: 99.8639% MPKI: 0.024533 Average ROB Occupancy at Mispredict: 188.465
Branch type MPKI
BRANCH_DIRECT_JUMP: 8.9e-05
BRANCH_INDIRECT: 0
BRANCH_CONDITIONAL: 0.024412
BRANCH_DIRECT_CALL: 1.6e-05
BRANCH_INDIRECT_CALL: 0
BRANCH_RETURN: 1.6e-05

***************** Done with 649.fotonik3d_s-1176B.champsimtrace.xz using ppf-spp-dev-3, on Wed Apr 20 18:34:36 CDT 2022 ******************
