Started running file 644.nab_s-5853B.champsimtrace.xz at time Wed Apr 20 14:42:20 CDT 2022 with prefetcher ppf-spp-dev-3

*** ChampSim Multicore Out-of-Order Simulator ***

Warmup Instructions: 200000000
Simulation Instructions: 1000000000
Number of CPUs: 1
Off-chip DRAM Size: 4 GiB Channels: 1 Width: 64-bit Data Rate: 3200 MT/s

VirtualMemory physical capacity: 8588881920 num_ppages: 2096895
VirtualMemory page size: 4096 log2_page_size: 12

CPU 0 runs /home/faculty/p/pgratz/dpc3_traces/644.nab_s-5853B.champsimtrace.xz
CPU 0 Bimodal branch predictor
Basic BTB sets: 1024 ways: 8 indirect buffer size: 4096 RAS size: 64
cpu0_L2C PPF SPP DEV Prefetcher
Heartbeat CPU 0 instructions: 10000001 cycles: 2500088 heartbeat IPC: 3.99986 cumulative IPC: 3.99986 (Simulation time: 0 hr 0 min 34 sec) 
Heartbeat CPU 0 instructions: 20000001 cycles: 5000088 heartbeat IPC: 4 cumulative IPC: 3.99993 (Simulation time: 0 hr 1 min 7 sec) 
Heartbeat CPU 0 instructions: 30000001 cycles: 7500088 heartbeat IPC: 4 cumulative IPC: 3.99995 (Simulation time: 0 hr 1 min 40 sec) 
Heartbeat CPU 0 instructions: 40000001 cycles: 10000088 heartbeat IPC: 4 cumulative IPC: 3.99996 (Simulation time: 0 hr 2 min 13 sec) 
Heartbeat CPU 0 instructions: 50000001 cycles: 12500088 heartbeat IPC: 4 cumulative IPC: 3.99997 (Simulation time: 0 hr 2 min 46 sec) 
Heartbeat CPU 0 instructions: 60000001 cycles: 15000088 heartbeat IPC: 4 cumulative IPC: 3.99998 (Simulation time: 0 hr 3 min 18 sec) 
Heartbeat CPU 0 instructions: 70000001 cycles: 17500088 heartbeat IPC: 4 cumulative IPC: 3.99998 (Simulation time: 0 hr 3 min 51 sec) 
Heartbeat CPU 0 instructions: 80000001 cycles: 20000088 heartbeat IPC: 4 cumulative IPC: 3.99998 (Simulation time: 0 hr 4 min 24 sec) 
Heartbeat CPU 0 instructions: 90000001 cycles: 22500088 heartbeat IPC: 4 cumulative IPC: 3.99998 (Simulation time: 0 hr 4 min 57 sec) 
Heartbeat CPU 0 instructions: 100000001 cycles: 25000088 heartbeat IPC: 4 cumulative IPC: 3.99999 (Simulation time: 0 hr 5 min 30 sec) 
Heartbeat CPU 0 instructions: 110000001 cycles: 27500088 heartbeat IPC: 4 cumulative IPC: 3.99999 (Simulation time: 0 hr 6 min 3 sec) 
Heartbeat CPU 0 instructions: 120000001 cycles: 30000088 heartbeat IPC: 4 cumulative IPC: 3.99999 (Simulation time: 0 hr 6 min 36 sec) 
Heartbeat CPU 0 instructions: 130000001 cycles: 32500088 heartbeat IPC: 4 cumulative IPC: 3.99999 (Simulation time: 0 hr 7 min 9 sec) 
Heartbeat CPU 0 instructions: 140000001 cycles: 35000088 heartbeat IPC: 4 cumulative IPC: 3.99999 (Simulation time: 0 hr 7 min 42 sec) 
Heartbeat CPU 0 instructions: 150000001 cycles: 37500088 heartbeat IPC: 4 cumulative IPC: 3.99999 (Simulation time: 0 hr 8 min 15 sec) 
Heartbeat CPU 0 instructions: 160000001 cycles: 40000088 heartbeat IPC: 4 cumulative IPC: 3.99999 (Simulation time: 0 hr 8 min 49 sec) 
Heartbeat CPU 0 instructions: 170000001 cycles: 42500088 heartbeat IPC: 4 cumulative IPC: 3.99999 (Simulation time: 0 hr 9 min 22 sec) 
Heartbeat CPU 0 instructions: 180000001 cycles: 45000088 heartbeat IPC: 4 cumulative IPC: 3.99999 (Simulation time: 0 hr 9 min 55 sec) 
Heartbeat CPU 0 instructions: 190000001 cycles: 47500088 heartbeat IPC: 4 cumulative IPC: 3.99999 (Simulation time: 0 hr 10 min 28 sec) 
Heartbeat CPU 0 instructions: 200000001 cycles: 50000088 heartbeat IPC: 4 cumulative IPC: 3.99999 (Simulation time: 0 hr 11 min 1 sec) 

Warmup complete CPU 0 instructions: 200000001 cycles: 50000088 (Simulation time: 0 hr 11 min 1 sec) 

Heartbeat CPU 0 instructions: 210000002 cycles: 57840869 heartbeat IPC: 1.27538 cumulative IPC: 1.27538 (Simulation time: 0 hr 11 min 37 sec) 
Heartbeat CPU 0 instructions: 220000003 cycles: 65692767 heartbeat IPC: 1.27358 cumulative IPC: 1.27448 (Simulation time: 0 hr 12 min 13 sec) 
Heartbeat CPU 0 instructions: 230000001 cycles: 73530828 heartbeat IPC: 1.27583 cumulative IPC: 1.27493 (Simulation time: 0 hr 12 min 50 sec) 
Heartbeat CPU 0 instructions: 240000001 cycles: 81383926 heartbeat IPC: 1.27338 cumulative IPC: 1.27454 (Simulation time: 0 hr 13 min 26 sec) 
Heartbeat CPU 0 instructions: 250000003 cycles: 89284505 heartbeat IPC: 1.26573 cumulative IPC: 1.27277 (Simulation time: 0 hr 14 min 3 sec) 
Heartbeat CPU 0 instructions: 260000000 cycles: 97156422 heartbeat IPC: 1.27034 cumulative IPC: 1.27236 (Simulation time: 0 hr 14 min 40 sec) 
Heartbeat CPU 0 instructions: 270000002 cycles: 104996785 heartbeat IPC: 1.27545 cumulative IPC: 1.2728 (Simulation time: 0 hr 15 min 16 sec) 
Heartbeat CPU 0 instructions: 280000002 cycles: 112820620 heartbeat IPC: 1.27815 cumulative IPC: 1.27347 (Simulation time: 0 hr 15 min 52 sec) 
Heartbeat CPU 0 instructions: 290000000 cycles: 120643330 heartbeat IPC: 1.27833 cumulative IPC: 1.27401 (Simulation time: 0 hr 16 min 28 sec) 
Heartbeat CPU 0 instructions: 300000000 cycles: 128453573 heartbeat IPC: 1.28037 cumulative IPC: 1.27464 (Simulation time: 0 hr 17 min 4 sec) 
Heartbeat CPU 0 instructions: 310000004 cycles: 136274645 heartbeat IPC: 1.2786 cumulative IPC: 1.275 (Simulation time: 0 hr 17 min 39 sec) 
Heartbeat CPU 0 instructions: 320000001 cycles: 144097365 heartbeat IPC: 1.27833 cumulative IPC: 1.27528 (Simulation time: 0 hr 18 min 15 sec) 
Heartbeat CPU 0 instructions: 330000002 cycles: 151960016 heartbeat IPC: 1.27184 cumulative IPC: 1.27501 (Simulation time: 0 hr 18 min 51 sec) 
Heartbeat CPU 0 instructions: 340000000 cycles: 159861970 heartbeat IPC: 1.26551 cumulative IPC: 1.27433 (Simulation time: 0 hr 19 min 28 sec) 
Heartbeat CPU 0 instructions: 350000000 cycles: 167755378 heartbeat IPC: 1.26688 cumulative IPC: 1.27383 (Simulation time: 0 hr 20 min 4 sec) 
Heartbeat CPU 0 instructions: 360000003 cycles: 175646417 heartbeat IPC: 1.26726 cumulative IPC: 1.27342 (Simulation time: 0 hr 20 min 40 sec) 
Heartbeat CPU 0 instructions: 370000003 cycles: 183516746 heartbeat IPC: 1.27059 cumulative IPC: 1.27325 (Simulation time: 0 hr 21 min 17 sec) 
Heartbeat CPU 0 instructions: 380000004 cycles: 191407639 heartbeat IPC: 1.26728 cumulative IPC: 1.27292 (Simulation time: 0 hr 21 min 53 sec) 
Heartbeat CPU 0 instructions: 390000004 cycles: 199265638 heartbeat IPC: 1.27259 cumulative IPC: 1.2729 (Simulation time: 0 hr 22 min 30 sec) 
Heartbeat CPU 0 instructions: 400000002 cycles: 207121456 heartbeat IPC: 1.27294 cumulative IPC: 1.2729 (Simulation time: 0 hr 23 min 6 sec) 
Heartbeat CPU 0 instructions: 410000003 cycles: 214964419 heartbeat IPC: 1.27503 cumulative IPC: 1.273 (Simulation time: 0 hr 23 min 42 sec) 
Heartbeat CPU 0 instructions: 420000000 cycles: 222814860 heartbeat IPC: 1.27381 cumulative IPC: 1.27304 (Simulation time: 0 hr 24 min 19 sec) 
Heartbeat CPU 0 instructions: 430000000 cycles: 230690883 heartbeat IPC: 1.26968 cumulative IPC: 1.27289 (Simulation time: 0 hr 24 min 56 sec) 
Heartbeat CPU 0 instructions: 440000002 cycles: 238607722 heartbeat IPC: 1.26313 cumulative IPC: 1.27248 (Simulation time: 0 hr 25 min 32 sec) 
Heartbeat CPU 0 instructions: 450000004 cycles: 246530204 heartbeat IPC: 1.26223 cumulative IPC: 1.27207 (Simulation time: 0 hr 26 min 9 sec) 
Heartbeat CPU 0 instructions: 460000003 cycles: 254462554 heartbeat IPC: 1.26066 cumulative IPC: 1.27163 (Simulation time: 0 hr 26 min 45 sec) 
Heartbeat CPU 0 instructions: 470000003 cycles: 262453753 heartbeat IPC: 1.25138 cumulative IPC: 1.27087 (Simulation time: 0 hr 27 min 22 sec) 
Heartbeat CPU 0 instructions: 480000001 cycles: 270437232 heartbeat IPC: 1.25259 cumulative IPC: 1.2702 (Simulation time: 0 hr 27 min 58 sec) 
Heartbeat CPU 0 instructions: 490000003 cycles: 278413786 heartbeat IPC: 1.25367 cumulative IPC: 1.26963 (Simulation time: 0 hr 28 min 36 sec) 
Heartbeat CPU 0 instructions: 500000000 cycles: 286438746 heartbeat IPC: 1.24611 cumulative IPC: 1.26883 (Simulation time: 0 hr 29 min 13 sec) 
Heartbeat CPU 0 instructions: 510000000 cycles: 294476909 heartbeat IPC: 1.24407 cumulative IPC: 1.26801 (Simulation time: 0 hr 29 min 49 sec) 
Heartbeat CPU 0 instructions: 520000000 cycles: 302518243 heartbeat IPC: 1.24357 cumulative IPC: 1.26724 (Simulation time: 0 hr 30 min 26 sec) 
Heartbeat CPU 0 instructions: 530000003 cycles: 310533488 heartbeat IPC: 1.24762 cumulative IPC: 1.26663 (Simulation time: 0 hr 31 min 3 sec) 
Heartbeat CPU 0 instructions: 540000003 cycles: 318481250 heartbeat IPC: 1.25822 cumulative IPC: 1.26638 (Simulation time: 0 hr 31 min 40 sec) 
Heartbeat CPU 0 instructions: 550000002 cycles: 326422359 heartbeat IPC: 1.25927 cumulative IPC: 1.26618 (Simulation time: 0 hr 32 min 17 sec) 
Heartbeat CPU 0 instructions: 560000001 cycles: 334324542 heartbeat IPC: 1.26547 cumulative IPC: 1.26616 (Simulation time: 0 hr 32 min 53 sec) 
Heartbeat CPU 0 instructions: 570000002 cycles: 342258204 heartbeat IPC: 1.26045 cumulative IPC: 1.266 (Simulation time: 0 hr 33 min 30 sec) 
Heartbeat CPU 0 instructions: 580000000 cycles: 350158758 heartbeat IPC: 1.26573 cumulative IPC: 1.266 (Simulation time: 0 hr 34 min 6 sec) 
Heartbeat CPU 0 instructions: 590000001 cycles: 358126885 heartbeat IPC: 1.255 cumulative IPC: 1.26571 (Simulation time: 0 hr 34 min 42 sec) 
Heartbeat CPU 0 instructions: 600000003 cycles: 366039645 heartbeat IPC: 1.26378 cumulative IPC: 1.26566 (Simulation time: 0 hr 35 min 19 sec) 
Heartbeat CPU 0 instructions: 610000001 cycles: 373979111 heartbeat IPC: 1.25953 cumulative IPC: 1.26551 (Simulation time: 0 hr 35 min 55 sec) 
Heartbeat CPU 0 instructions: 620000000 cycles: 381889387 heartbeat IPC: 1.26418 cumulative IPC: 1.26548 (Simulation time: 0 hr 36 min 31 sec) 
Heartbeat CPU 0 instructions: 630000002 cycles: 389846107 heartbeat IPC: 1.2568 cumulative IPC: 1.26528 (Simulation time: 0 hr 37 min 8 sec) 
Heartbeat CPU 0 instructions: 640000000 cycles: 397792376 heartbeat IPC: 1.25845 cumulative IPC: 1.26512 (Simulation time: 0 hr 37 min 44 sec) 
Heartbeat CPU 0 instructions: 650000002 cycles: 405739278 heartbeat IPC: 1.25835 cumulative IPC: 1.26497 (Simulation time: 0 hr 38 min 20 sec) 
Heartbeat CPU 0 instructions: 660000000 cycles: 413723023 heartbeat IPC: 1.25254 cumulative IPC: 1.2647 (Simulation time: 0 hr 38 min 57 sec) 
Heartbeat CPU 0 instructions: 670000004 cycles: 421748091 heartbeat IPC: 1.2461 cumulative IPC: 1.2643 (Simulation time: 0 hr 39 min 33 sec) 
Heartbeat CPU 0 instructions: 680000000 cycles: 429769933 heartbeat IPC: 1.2466 cumulative IPC: 1.26392 (Simulation time: 0 hr 40 min 10 sec) 
Heartbeat CPU 0 instructions: 690000001 cycles: 437754634 heartbeat IPC: 1.2524 cumulative IPC: 1.26369 (Simulation time: 0 hr 40 min 46 sec) 
Heartbeat CPU 0 instructions: 700000004 cycles: 445714890 heartbeat IPC: 1.25624 cumulative IPC: 1.26354 (Simulation time: 0 hr 41 min 22 sec) 
Heartbeat CPU 0 instructions: 710000001 cycles: 453670854 heartbeat IPC: 1.25692 cumulative IPC: 1.26341 (Simulation time: 0 hr 41 min 59 sec) 
Heartbeat CPU 0 instructions: 720000003 cycles: 461759103 heartbeat IPC: 1.23636 cumulative IPC: 1.26287 (Simulation time: 0 hr 42 min 35 sec) 
Heartbeat CPU 0 instructions: 730000001 cycles: 469819641 heartbeat IPC: 1.24061 cumulative IPC: 1.26245 (Simulation time: 0 hr 43 min 12 sec) 
Heartbeat CPU 0 instructions: 740000002 cycles: 477787765 heartbeat IPC: 1.255 cumulative IPC: 1.26231 (Simulation time: 0 hr 43 min 48 sec) 
Heartbeat CPU 0 instructions: 750000003 cycles: 485792540 heartbeat IPC: 1.24925 cumulative IPC: 1.26207 (Simulation time: 0 hr 44 min 25 sec) 
Heartbeat CPU 0 instructions: 760000001 cycles: 493732733 heartbeat IPC: 1.25942 cumulative IPC: 1.26202 (Simulation time: 0 hr 45 min 1 sec) 
Heartbeat CPU 0 instructions: 770000001 cycles: 501665585 heartbeat IPC: 1.26058 cumulative IPC: 1.262 (Simulation time: 0 hr 45 min 38 sec) 
Heartbeat CPU 0 instructions: 780000002 cycles: 509608341 heartbeat IPC: 1.25901 cumulative IPC: 1.26194 (Simulation time: 0 hr 46 min 14 sec) 
Heartbeat CPU 0 instructions: 790000001 cycles: 517470923 heartbeat IPC: 1.27185 cumulative IPC: 1.26211 (Simulation time: 0 hr 46 min 50 sec) 
Heartbeat CPU 0 instructions: 800000000 cycles: 525357471 heartbeat IPC: 1.26798 cumulative IPC: 1.26221 (Simulation time: 0 hr 47 min 26 sec) 
Heartbeat CPU 0 instructions: 810000004 cycles: 533240928 heartbeat IPC: 1.26848 cumulative IPC: 1.26231 (Simulation time: 0 hr 48 min 2 sec) 
Heartbeat CPU 0 instructions: 820000000 cycles: 541081550 heartbeat IPC: 1.27541 cumulative IPC: 1.26252 (Simulation time: 0 hr 48 min 39 sec) 
Heartbeat CPU 0 instructions: 830000001 cycles: 548924761 heartbeat IPC: 1.27499 cumulative IPC: 1.26272 (Simulation time: 0 hr 49 min 15 sec) 
Heartbeat CPU 0 instructions: 840000000 cycles: 556773052 heartbeat IPC: 1.27416 cumulative IPC: 1.26289 (Simulation time: 0 hr 49 min 51 sec) 
Heartbeat CPU 0 instructions: 850000003 cycles: 564634259 heartbeat IPC: 1.27207 cumulative IPC: 1.26303 (Simulation time: 0 hr 50 min 27 sec) 
Heartbeat CPU 0 instructions: 860000004 cycles: 572508332 heartbeat IPC: 1.26999 cumulative IPC: 1.26314 (Simulation time: 0 hr 51 min 4 sec) 
Heartbeat CPU 0 instructions: 870000004 cycles: 580365567 heartbeat IPC: 1.27271 cumulative IPC: 1.26328 (Simulation time: 0 hr 51 min 40 sec) 
Heartbeat CPU 0 instructions: 880000000 cycles: 588248114 heartbeat IPC: 1.26863 cumulative IPC: 1.26336 (Simulation time: 0 hr 52 min 16 sec) 
Heartbeat CPU 0 instructions: 890000000 cycles: 596101384 heartbeat IPC: 1.27335 cumulative IPC: 1.2635 (Simulation time: 0 hr 52 min 52 sec) 
Heartbeat CPU 0 instructions: 900000000 cycles: 603933593 heartbeat IPC: 1.27678 cumulative IPC: 1.26369 (Simulation time: 0 hr 53 min 29 sec) 
Heartbeat CPU 0 instructions: 910000001 cycles: 611746032 heartbeat IPC: 1.28001 cumulative IPC: 1.26392 (Simulation time: 0 hr 54 min 5 sec) 
Heartbeat CPU 0 instructions: 920000004 cycles: 619591211 heartbeat IPC: 1.27467 cumulative IPC: 1.26406 (Simulation time: 0 hr 54 min 40 sec) 
Heartbeat CPU 0 instructions: 930000000 cycles: 627524783 heartbeat IPC: 1.26047 cumulative IPC: 1.26402 (Simulation time: 0 hr 55 min 16 sec) 
Heartbeat CPU 0 instructions: 940000000 cycles: 635533635 heartbeat IPC: 1.24862 cumulative IPC: 1.2638 (Simulation time: 0 hr 55 min 53 sec) 
Heartbeat CPU 0 instructions: 950000000 cycles: 643533968 heartbeat IPC: 1.24995 cumulative IPC: 1.26362 (Simulation time: 0 hr 56 min 29 sec) 
Heartbeat CPU 0 instructions: 960000002 cycles: 651660049 heartbeat IPC: 1.23061 cumulative IPC: 1.26317 (Simulation time: 0 hr 57 min 6 sec) 
Heartbeat CPU 0 instructions: 970000000 cycles: 659776389 heartbeat IPC: 1.23208 cumulative IPC: 1.26276 (Simulation time: 0 hr 57 min 43 sec) 
Heartbeat CPU 0 instructions: 980000000 cycles: 667861131 heartbeat IPC: 1.2369 cumulative IPC: 1.26242 (Simulation time: 0 hr 58 min 20 sec) 
Heartbeat CPU 0 instructions: 990000004 cycles: 675935269 heartbeat IPC: 1.23852 cumulative IPC: 1.26211 (Simulation time: 0 hr 58 min 56 sec) 
Heartbeat CPU 0 instructions: 1000000001 cycles: 684005035 heartbeat IPC: 1.23919 cumulative IPC: 1.26182 (Simulation time: 0 hr 59 min 33 sec) 
Heartbeat CPU 0 instructions: 1010000002 cycles: 692175791 heartbeat IPC: 1.22388 cumulative IPC: 1.26134 (Simulation time: 1 hr 0 min 10 sec) 
Heartbeat CPU 0 instructions: 1020000002 cycles: 700429214 heartbeat IPC: 1.21162 cumulative IPC: 1.26071 (Simulation time: 1 hr 0 min 47 sec) 
Heartbeat CPU 0 instructions: 1030000001 cycles: 708712700 heartbeat IPC: 1.20722 cumulative IPC: 1.26003 (Simulation time: 1 hr 1 min 24 sec) 
Heartbeat CPU 0 instructions: 1040000002 cycles: 717032505 heartbeat IPC: 1.20195 cumulative IPC: 1.25931 (Simulation time: 1 hr 2 min 1 sec) 
Heartbeat CPU 0 instructions: 1050000001 cycles: 725419495 heartbeat IPC: 1.19232 cumulative IPC: 1.25848 (Simulation time: 1 hr 2 min 39 sec) 
Heartbeat CPU 0 instructions: 1060000002 cycles: 733787602 heartbeat IPC: 1.19501 cumulative IPC: 1.2577 (Simulation time: 1 hr 3 min 16 sec) 
Heartbeat CPU 0 instructions: 1070000000 cycles: 742164576 heartbeat IPC: 1.19375 cumulative IPC: 1.25693 (Simulation time: 1 hr 3 min 53 sec) 
Heartbeat CPU 0 instructions: 1080000000 cycles: 750532252 heartbeat IPC: 1.19507 cumulative IPC: 1.25619 (Simulation time: 1 hr 4 min 31 sec) 
Heartbeat CPU 0 instructions: 1090000000 cycles: 758950786 heartbeat IPC: 1.18786 cumulative IPC: 1.25538 (Simulation time: 1 hr 5 min 8 sec) 
Heartbeat CPU 0 instructions: 1100000000 cycles: 767349508 heartbeat IPC: 1.19066 cumulative IPC: 1.25462 (Simulation time: 1 hr 5 min 46 sec) 
Heartbeat CPU 0 instructions: 1110000002 cycles: 775685816 heartbeat IPC: 1.19957 cumulative IPC: 1.25399 (Simulation time: 1 hr 6 min 23 sec) 
Heartbeat CPU 0 instructions: 1120000003 cycles: 783946126 heartbeat IPC: 1.21061 cumulative IPC: 1.2535 (Simulation time: 1 hr 7 min 0 sec) 
Heartbeat CPU 0 instructions: 1130000002 cycles: 791907339 heartbeat IPC: 1.25609 cumulative IPC: 1.25353 (Simulation time: 1 hr 7 min 36 sec) 
Heartbeat CPU 0 instructions: 1140000000 cycles: 799847974 heartbeat IPC: 1.25934 cumulative IPC: 1.25359 (Simulation time: 1 hr 8 min 12 sec) 
Heartbeat CPU 0 instructions: 1150000001 cycles: 807799243 heartbeat IPC: 1.25766 cumulative IPC: 1.25363 (Simulation time: 1 hr 8 min 48 sec) 
Heartbeat CPU 0 instructions: 1160000000 cycles: 815741535 heartbeat IPC: 1.25908 cumulative IPC: 1.25369 (Simulation time: 1 hr 9 min 24 sec) 
Heartbeat CPU 0 instructions: 1170000001 cycles: 823798847 heartbeat IPC: 1.24111 cumulative IPC: 1.25356 (Simulation time: 1 hr 10 min 0 sec) 
Heartbeat CPU 0 instructions: 1180000002 cycles: 831973843 heartbeat IPC: 1.22324 cumulative IPC: 1.25324 (Simulation time: 1 hr 10 min 37 sec) 
Heartbeat CPU 0 instructions: 1190000001 cycles: 840047010 heartbeat IPC: 1.23867 cumulative IPC: 1.25309 (Simulation time: 1 hr 11 min 14 sec) 
Heartbeat CPU 0 instructions: 1200000001 cycles: 848131775 heartbeat IPC: 1.23689 cumulative IPC: 1.25293 (Simulation time: 1 hr 11 min 50 sec) 
Finished CPU 0 instructions: 1000000000 cycles: 798131687 cumulative IPC: 1.25293 (Simulation time: 1 hr 11 min 50 sec) 

ChampSim completed all CPUs

Region of Interest Statistics

CPU 0 cumulative IPC: 1.25293 instructions: 1000000000 cycles: 798131687
cpu0_DTLB TOTAL     ACCESS:  227781696  HIT:  225559379  MISS:    2222317
cpu0_DTLB LOAD      ACCESS:  175942968  HIT:  173737151  MISS:    2205817
cpu0_DTLB RFO       ACCESS:   51838728  HIT:   51822228  MISS:      16500
cpu0_DTLB PREFETCH  ACCESS:          0  HIT:          0  MISS:          0
cpu0_DTLB WRITEBACK ACCESS:          0  HIT:          0  MISS:          0
cpu0_DTLB TRANSLATION ACCESS:          0  HIT:          0  MISS:          0
cpu0_DTLB PREFETCH  REQUESTED:          0  ISSUED:          0  USEFUL:          0  USELESS:          0
cpu0_DTLB AVERAGE MISS LATENCY: 11.7377 cycles
cpu0_ITLB TOTAL     ACCESS:  107763493  HIT:  107763493  MISS:          0
cpu0_ITLB LOAD      ACCESS:  107763493  HIT:  107763493  MISS:          0
cpu0_ITLB RFO       ACCESS:          0  HIT:          0  MISS:          0
cpu0_ITLB PREFETCH  ACCESS:          0  HIT:          0  MISS:          0
cpu0_ITLB WRITEBACK ACCESS:          0  HIT:          0  MISS:          0
cpu0_ITLB TRANSLATION ACCESS:          0  HIT:          0  MISS:          0
cpu0_ITLB PREFETCH  REQUESTED:          0  ISSUED:          0  USEFUL:          0  USELESS:          0
cpu0_ITLB AVERAGE MISS LATENCY: -nan cycles
cpu0_L1I TOTAL     ACCESS:      21977  HIT:      21975  MISS:          2
cpu0_L1I LOAD      ACCESS:      21977  HIT:      21975  MISS:          2
cpu0_L1I RFO       ACCESS:          0  HIT:          0  MISS:          0
cpu0_L1I PREFETCH  ACCESS:          0  HIT:          0  MISS:          0
cpu0_L1I WRITEBACK ACCESS:          0  HIT:          0  MISS:          0
cpu0_L1I TRANSLATION ACCESS:          0  HIT:          0  MISS:          0
cpu0_L1I PREFETCH  REQUESTED:          0  ISSUED:          0  USEFUL:          0  USELESS:          0
cpu0_L1I AVERAGE MISS LATENCY: 194 cycles
cpu0_STLB TOTAL     ACCESS:    2222317  HIT:    2214678  MISS:       7639
cpu0_STLB LOAD      ACCESS:    2205817  HIT:    2198178  MISS:       7639
cpu0_STLB RFO       ACCESS:      16500  HIT:      16500  MISS:          0
cpu0_STLB PREFETCH  ACCESS:          0  HIT:          0  MISS:          0
cpu0_STLB WRITEBACK ACCESS:          0  HIT:          0  MISS:          0
cpu0_STLB TRANSLATION ACCESS:          0  HIT:          0  MISS:          0
cpu0_STLB PREFETCH  REQUESTED:          0  ISSUED:          0  USEFUL:          0  USELESS:          0
cpu0_STLB AVERAGE MISS LATENCY: 214.396 cycles
cpu0_L1D TOTAL     ACCESS:  321247767  HIT:  317330723  MISS:    3917044
cpu0_L1D LOAD      ACCESS:  210622855  HIT:  206715644  MISS:    3907211
cpu0_L1D RFO       ACCESS:  110617278  HIT:  110611043  MISS:       6235
cpu0_L1D PREFETCH  ACCESS:          0  HIT:          0  MISS:          0
cpu0_L1D WRITEBACK ACCESS:          0  HIT:          0  MISS:          0
cpu0_L1D TRANSLATION ACCESS:       7634  HIT:       4036  MISS:       3598
cpu0_L1D PREFETCH  REQUESTED:          0  ISSUED:          0  USEFUL:          0  USELESS:          0
cpu0_L1D AVERAGE MISS LATENCY: 11.5705 cycles
cpu0_L2C TOTAL     ACCESS:   11997628  HIT:   11774877  MISS:     222751
cpu0_L2C LOAD      ACCESS:    3907203  HIT:    3892911  MISS:      14292
cpu0_L2C RFO       ACCESS:       6234  HIT:       5681  MISS:        553
cpu0_L2C PREFETCH  ACCESS:    6740604  HIT:    6532832  MISS:     207772
cpu0_L2C WRITEBACK ACCESS:    1339989  HIT:    1339966  MISS:         23
cpu0_L2C TRANSLATION ACCESS:       3598  HIT:       3487  MISS:        111
cpu0_L2C PREFETCH  REQUESTED:    7103678  ISSUED:    6974069  USEFUL:     188778  USELESS:      18935
cpu0_L2C AVERAGE MISS LATENCY: 65.5914 cycles
LLC TOTAL     ACCESS:     463058  HIT:     239105  MISS:     223953
LLC LOAD      ACCESS:      14284  HIT:       2447  MISS:      11837
LLC RFO       ACCESS:        553  HIT:        522  MISS:         31
LLC PREFETCH  ACCESS:     440808  HIT:     231410  MISS:     209398
LLC WRITEBACK ACCESS:       7302  HIT:       4668  MISS:       2634
LLC TRANSLATION ACCESS:        111  HIT:         58  MISS:         53
LLC PREFETCH  REQUESTED:          0  ISSUED:          0  USEFUL:          0  USELESS:          0
LLC AVERAGE MISS LATENCY: 106.702 cycles
Printing the final status 

DRAM Statistics
 CHANNEL 0
 RQ ROW_BUFFER_HIT:     137301  ROW_BUFFER_MISS:      84018
 DBUS AVG_CONGESTED_CYCLE:    3.94538
 WQ ROW_BUFFER_HIT:         62  ROW_BUFFER_MISS:       4791  FULL:          0


CPU 0 Branch Prediction Accuracy: 94.2299% MPKI: 5.58664 Average ROB Occupancy at Mispredict: 134.564
Branch type MPKI
BRANCH_DIRECT_JUMP: 2e-06
BRANCH_INDIRECT: 0
BRANCH_CONDITIONAL: 5.58664
BRANCH_DIRECT_CALL: 1e-06
BRANCH_INDIRECT_CALL: 0
BRANCH_RETURN: 1e-06

***************** Done with 644.nab_s-5853B.champsimtrace.xz using ppf-spp-dev-3, on Wed Apr 20 15:54:10 CDT 2022 ******************
