Started running file 657.xz_s-3167B.champsimtrace.xz at time Wed Apr 20 18:55:38 CDT 2022 with prefetcher ppf-spp-dev-3

*** ChampSim Multicore Out-of-Order Simulator ***

Warmup Instructions: 200000000
Simulation Instructions: 1000000000
Number of CPUs: 1
Off-chip DRAM Size: 4 GiB Channels: 1 Width: 64-bit Data Rate: 3200 MT/s

VirtualMemory physical capacity: 8588881920 num_ppages: 2096895
VirtualMemory page size: 4096 log2_page_size: 12

CPU 0 runs /home/faculty/p/pgratz/dpc3_traces/657.xz_s-3167B.champsimtrace.xz
CPU 0 Bimodal branch predictor
Basic BTB sets: 1024 ways: 8 indirect buffer size: 4096 RAS size: 64
cpu0_L2C PPF SPP DEV Prefetcher
Heartbeat CPU 0 instructions: 10000002 cycles: 2511755 heartbeat IPC: 3.98128 cumulative IPC: 3.98128 (Simulation time: 0 hr 0 min 30 sec) 
Heartbeat CPU 0 instructions: 20000003 cycles: 5023710 heartbeat IPC: 3.98096 cumulative IPC: 3.98112 (Simulation time: 0 hr 0 min 59 sec) 
Heartbeat CPU 0 instructions: 30000001 cycles: 7529679 heartbeat IPC: 3.99047 cumulative IPC: 3.98423 (Simulation time: 0 hr 1 min 29 sec) 
Heartbeat CPU 0 instructions: 40000002 cycles: 10035660 heartbeat IPC: 3.99045 cumulative IPC: 3.98579 (Simulation time: 0 hr 1 min 59 sec) 
Heartbeat CPU 0 instructions: 50000002 cycles: 12541673 heartbeat IPC: 3.9904 cumulative IPC: 3.98671 (Simulation time: 0 hr 2 min 28 sec) 
Heartbeat CPU 0 instructions: 60000003 cycles: 15050698 heartbeat IPC: 3.98561 cumulative IPC: 3.98653 (Simulation time: 0 hr 2 min 57 sec) 
Heartbeat CPU 0 instructions: 70000002 cycles: 17556697 heartbeat IPC: 3.99042 cumulative IPC: 3.98708 (Simulation time: 0 hr 3 min 26 sec) 
Heartbeat CPU 0 instructions: 80000000 cycles: 20065673 heartbeat IPC: 3.98569 cumulative IPC: 3.98691 (Simulation time: 0 hr 3 min 56 sec) 
Heartbeat CPU 0 instructions: 90000001 cycles: 22571651 heartbeat IPC: 3.99046 cumulative IPC: 3.9873 (Simulation time: 0 hr 4 min 25 sec) 
Heartbeat CPU 0 instructions: 100000002 cycles: 25080611 heartbeat IPC: 3.98572 cumulative IPC: 3.98714 (Simulation time: 0 hr 4 min 55 sec) 
Heartbeat CPU 0 instructions: 110000002 cycles: 27589562 heartbeat IPC: 3.98573 cumulative IPC: 3.98702 (Simulation time: 0 hr 5 min 24 sec) 
Heartbeat CPU 0 instructions: 120000002 cycles: 30098669 heartbeat IPC: 3.98548 cumulative IPC: 3.98689 (Simulation time: 0 hr 5 min 53 sec) 
Heartbeat CPU 0 instructions: 130000002 cycles: 32607652 heartbeat IPC: 3.98568 cumulative IPC: 3.98679 (Simulation time: 0 hr 6 min 23 sec) 
Heartbeat CPU 0 instructions: 140000002 cycles: 35116716 heartbeat IPC: 3.98555 cumulative IPC: 3.98671 (Simulation time: 0 hr 6 min 52 sec) 
Heartbeat CPU 0 instructions: 150000001 cycles: 37625693 heartbeat IPC: 3.98569 cumulative IPC: 3.98664 (Simulation time: 0 hr 7 min 21 sec) 
Heartbeat CPU 0 instructions: 160000003 cycles: 40134849 heartbeat IPC: 3.9854 cumulative IPC: 3.98656 (Simulation time: 0 hr 7 min 50 sec) 
Heartbeat CPU 0 instructions: 170000001 cycles: 42644318 heartbeat IPC: 3.98491 cumulative IPC: 3.98646 (Simulation time: 0 hr 8 min 19 sec) 
Heartbeat CPU 0 instructions: 180000000 cycles: 45151077 heartbeat IPC: 3.98921 cumulative IPC: 3.98662 (Simulation time: 0 hr 8 min 49 sec) 
Heartbeat CPU 0 instructions: 190000000 cycles: 47657503 heartbeat IPC: 3.98974 cumulative IPC: 3.98678 (Simulation time: 0 hr 9 min 18 sec) 
Heartbeat CPU 0 instructions: 200000002 cycles: 50160507 heartbeat IPC: 3.9952 cumulative IPC: 3.9872 (Simulation time: 0 hr 9 min 48 sec) 

Warmup complete CPU 0 instructions: 200000002 cycles: 50160507 (Simulation time: 0 hr 9 min 48 sec) 

Heartbeat CPU 0 instructions: 210000000 cycles: 59184706 heartbeat IPC: 1.10813 cumulative IPC: 1.10813 (Simulation time: 0 hr 10 min 18 sec) 
Heartbeat CPU 0 instructions: 220000001 cycles: 67258726 heartbeat IPC: 1.23854 cumulative IPC: 1.16971 (Simulation time: 0 hr 10 min 48 sec) 
Heartbeat CPU 0 instructions: 230000000 cycles: 74285892 heartbeat IPC: 1.42305 cumulative IPC: 1.2435 (Simulation time: 0 hr 11 min 19 sec) 
Heartbeat CPU 0 instructions: 240000002 cycles: 81470219 heartbeat IPC: 1.39192 cumulative IPC: 1.27756 (Simulation time: 0 hr 11 min 48 sec) 
Heartbeat CPU 0 instructions: 250000000 cycles: 88348256 heartbeat IPC: 1.4539 cumulative IPC: 1.30932 (Simulation time: 0 hr 12 min 17 sec) 
Heartbeat CPU 0 instructions: 260000000 cycles: 94312036 heartbeat IPC: 1.67679 cumulative IPC: 1.35896 (Simulation time: 0 hr 12 min 46 sec) 
Heartbeat CPU 0 instructions: 270000000 cycles: 100060262 heartbeat IPC: 1.73967 cumulative IPC: 1.40281 (Simulation time: 0 hr 13 min 14 sec) 
Heartbeat CPU 0 instructions: 280000000 cycles: 108575858 heartbeat IPC: 1.17432 cumulative IPC: 1.3695 (Simulation time: 0 hr 13 min 45 sec) 
Heartbeat CPU 0 instructions: 290000001 cycles: 115625245 heartbeat IPC: 1.41856 cumulative IPC: 1.37479 (Simulation time: 0 hr 14 min 15 sec) 
Heartbeat CPU 0 instructions: 300000004 cycles: 121963875 heartbeat IPC: 1.57763 cumulative IPC: 1.39269 (Simulation time: 0 hr 14 min 44 sec) 
Heartbeat CPU 0 instructions: 310000003 cycles: 128658973 heartbeat IPC: 1.49363 cumulative IPC: 1.4013 (Simulation time: 0 hr 15 min 13 sec) 
Heartbeat CPU 0 instructions: 320000003 cycles: 136410309 heartbeat IPC: 1.2901 cumulative IPC: 1.39131 (Simulation time: 0 hr 15 min 43 sec) 
Heartbeat CPU 0 instructions: 330000003 cycles: 142650845 heartbeat IPC: 1.60243 cumulative IPC: 1.40555 (Simulation time: 0 hr 16 min 11 sec) 
Heartbeat CPU 0 instructions: 340000001 cycles: 150175800 heartbeat IPC: 1.32891 cumulative IPC: 1.39979 (Simulation time: 0 hr 16 min 41 sec) 
Heartbeat CPU 0 instructions: 350000002 cycles: 158126037 heartbeat IPC: 1.25782 cumulative IPC: 1.38933 (Simulation time: 0 hr 17 min 11 sec) 
Heartbeat CPU 0 instructions: 360000002 cycles: 166196747 heartbeat IPC: 1.23905 cumulative IPC: 1.37888 (Simulation time: 0 hr 17 min 42 sec) 
Heartbeat CPU 0 instructions: 370000001 cycles: 173464061 heartbeat IPC: 1.37602 cumulative IPC: 1.37871 (Simulation time: 0 hr 18 min 11 sec) 
Heartbeat CPU 0 instructions: 380000001 cycles: 180305120 heartbeat IPC: 1.46176 cumulative IPC: 1.38308 (Simulation time: 0 hr 18 min 40 sec) 
Heartbeat CPU 0 instructions: 390000000 cycles: 188578530 heartbeat IPC: 1.20869 cumulative IPC: 1.37265 (Simulation time: 0 hr 19 min 11 sec) 
Heartbeat CPU 0 instructions: 400000001 cycles: 196403490 heartbeat IPC: 1.27796 cumulative IPC: 1.36759 (Simulation time: 0 hr 19 min 41 sec) 
Heartbeat CPU 0 instructions: 410000004 cycles: 204501980 heartbeat IPC: 1.2348 cumulative IPC: 1.36062 (Simulation time: 0 hr 20 min 12 sec) 
Heartbeat CPU 0 instructions: 420000000 cycles: 212808583 heartbeat IPC: 1.20386 cumulative IPC: 1.35261 (Simulation time: 0 hr 20 min 42 sec) 
Heartbeat CPU 0 instructions: 430000004 cycles: 220642368 heartbeat IPC: 1.27652 cumulative IPC: 1.34912 (Simulation time: 0 hr 21 min 12 sec) 
Heartbeat CPU 0 instructions: 440000002 cycles: 228566284 heartbeat IPC: 1.262 cumulative IPC: 1.34525 (Simulation time: 0 hr 21 min 41 sec) 
Heartbeat CPU 0 instructions: 450000003 cycles: 236333077 heartbeat IPC: 1.28753 cumulative IPC: 1.34284 (Simulation time: 0 hr 22 min 11 sec) 
Heartbeat CPU 0 instructions: 460000000 cycles: 244046100 heartbeat IPC: 1.29651 cumulative IPC: 1.341 (Simulation time: 0 hr 22 min 41 sec) 
Heartbeat CPU 0 instructions: 470000000 cycles: 251544247 heartbeat IPC: 1.33366 cumulative IPC: 1.34072 (Simulation time: 0 hr 23 min 10 sec) 
Heartbeat CPU 0 instructions: 480000002 cycles: 258308224 heartbeat IPC: 1.47842 cumulative IPC: 1.3452 (Simulation time: 0 hr 23 min 40 sec) 
Heartbeat CPU 0 instructions: 490000003 cycles: 264904883 heartbeat IPC: 1.51592 cumulative IPC: 1.35044 (Simulation time: 0 hr 24 min 9 sec) 
Heartbeat CPU 0 instructions: 500000004 cycles: 272010443 heartbeat IPC: 1.40735 cumulative IPC: 1.35227 (Simulation time: 0 hr 24 min 38 sec) 
Heartbeat CPU 0 instructions: 510000000 cycles: 285911695 heartbeat IPC: 0.719359 cumulative IPC: 1.31495 (Simulation time: 0 hr 26 min 4 sec) 
Heartbeat CPU 0 instructions: 520000002 cycles: 293292354 heartbeat IPC: 1.35489 cumulative IPC: 1.31616 (Simulation time: 0 hr 26 min 34 sec) 
Heartbeat CPU 0 instructions: 530000004 cycles: 300255611 heartbeat IPC: 1.43611 cumulative IPC: 1.3195 (Simulation time: 0 hr 27 min 4 sec) 
Heartbeat CPU 0 instructions: 540000000 cycles: 307116003 heartbeat IPC: 1.45764 cumulative IPC: 1.32319 (Simulation time: 0 hr 27 min 33 sec) 
Heartbeat CPU 0 instructions: 550000000 cycles: 316102044 heartbeat IPC: 1.11284 cumulative IPC: 1.31608 (Simulation time: 0 hr 28 min 5 sec) 
Heartbeat CPU 0 instructions: 560000003 cycles: 323329013 heartbeat IPC: 1.38371 cumulative IPC: 1.31787 (Simulation time: 0 hr 28 min 34 sec) 
Heartbeat CPU 0 instructions: 570000004 cycles: 330429121 heartbeat IPC: 1.40843 cumulative IPC: 1.32016 (Simulation time: 0 hr 29 min 4 sec) 
Heartbeat CPU 0 instructions: 580000001 cycles: 337507171 heartbeat IPC: 1.41282 cumulative IPC: 1.32244 (Simulation time: 0 hr 29 min 33 sec) 
Heartbeat CPU 0 instructions: 590000000 cycles: 344661645 heartbeat IPC: 1.39773 cumulative IPC: 1.32427 (Simulation time: 0 hr 30 min 3 sec) 
Heartbeat CPU 0 instructions: 600000000 cycles: 351912113 heartbeat IPC: 1.37922 cumulative IPC: 1.32559 (Simulation time: 0 hr 30 min 32 sec) 
Heartbeat CPU 0 instructions: 610000004 cycles: 359249731 heartbeat IPC: 1.36284 cumulative IPC: 1.32648 (Simulation time: 0 hr 31 min 2 sec) 
Heartbeat CPU 0 instructions: 620000001 cycles: 366049750 heartbeat IPC: 1.47058 cumulative IPC: 1.32958 (Simulation time: 0 hr 31 min 32 sec) 
Heartbeat CPU 0 instructions: 630000001 cycles: 373205673 heartbeat IPC: 1.39744 cumulative IPC: 1.33108 (Simulation time: 0 hr 32 min 1 sec) 
Heartbeat CPU 0 instructions: 640000003 cycles: 380178419 heartbeat IPC: 1.43416 cumulative IPC: 1.33326 (Simulation time: 0 hr 32 min 31 sec) 
Heartbeat CPU 0 instructions: 650000001 cycles: 386324237 heartbeat IPC: 1.62712 cumulative IPC: 1.33863 (Simulation time: 0 hr 32 min 59 sec) 
Heartbeat CPU 0 instructions: 660000003 cycles: 393525167 heartbeat IPC: 1.38871 cumulative IPC: 1.33968 (Simulation time: 0 hr 33 min 29 sec) 
Heartbeat CPU 0 instructions: 670000004 cycles: 400759666 heartbeat IPC: 1.38227 cumulative IPC: 1.34056 (Simulation time: 0 hr 33 min 58 sec) 
Heartbeat CPU 0 instructions: 680000002 cycles: 407261993 heartbeat IPC: 1.53791 cumulative IPC: 1.34416 (Simulation time: 0 hr 34 min 28 sec) 
Heartbeat CPU 0 instructions: 690000003 cycles: 415195097 heartbeat IPC: 1.26054 cumulative IPC: 1.34234 (Simulation time: 0 hr 34 min 58 sec) 
Heartbeat CPU 0 instructions: 700000001 cycles: 422589671 heartbeat IPC: 1.35234 cumulative IPC: 1.34254 (Simulation time: 0 hr 35 min 27 sec) 
Heartbeat CPU 0 instructions: 710000000 cycles: 430194195 heartbeat IPC: 1.31501 cumulative IPC: 1.34199 (Simulation time: 0 hr 35 min 58 sec) 
Heartbeat CPU 0 instructions: 720000003 cycles: 437829237 heartbeat IPC: 1.30975 cumulative IPC: 1.34135 (Simulation time: 0 hr 36 min 28 sec) 
Heartbeat CPU 0 instructions: 730000004 cycles: 445124122 heartbeat IPC: 1.37082 cumulative IPC: 1.3419 (Simulation time: 0 hr 36 min 57 sec) 
Heartbeat CPU 0 instructions: 740000002 cycles: 452734683 heartbeat IPC: 1.31396 cumulative IPC: 1.34137 (Simulation time: 0 hr 37 min 27 sec) 
Heartbeat CPU 0 instructions: 750000003 cycles: 458823730 heartbeat IPC: 1.64229 cumulative IPC: 1.34585 (Simulation time: 0 hr 37 min 56 sec) 
Heartbeat CPU 0 instructions: 760000000 cycles: 464560133 heartbeat IPC: 1.74325 cumulative IPC: 1.35135 (Simulation time: 0 hr 38 min 26 sec) 
Heartbeat CPU 0 instructions: 770000002 cycles: 470330716 heartbeat IPC: 1.73293 cumulative IPC: 1.35659 (Simulation time: 0 hr 38 min 54 sec) 
Heartbeat CPU 0 instructions: 780000004 cycles: 475978584 heartbeat IPC: 1.77058 cumulative IPC: 1.36208 (Simulation time: 0 hr 39 min 23 sec) 
Heartbeat CPU 0 instructions: 790000000 cycles: 481785638 heartbeat IPC: 1.72204 cumulative IPC: 1.36693 (Simulation time: 0 hr 39 min 53 sec) 
Heartbeat CPU 0 instructions: 800000002 cycles: 487573225 heartbeat IPC: 1.72784 cumulative IPC: 1.3717 (Simulation time: 0 hr 40 min 22 sec) 
Heartbeat CPU 0 instructions: 810000002 cycles: 493404045 heartbeat IPC: 1.71502 cumulative IPC: 1.37622 (Simulation time: 0 hr 40 min 51 sec) 
Heartbeat CPU 0 instructions: 820000000 cycles: 499149793 heartbeat IPC: 1.74042 cumulative IPC: 1.38088 (Simulation time: 0 hr 41 min 20 sec) 
Heartbeat CPU 0 instructions: 830000000 cycles: 505023642 heartbeat IPC: 1.70246 cumulative IPC: 1.38503 (Simulation time: 0 hr 41 min 49 sec) 
Heartbeat CPU 0 instructions: 840000002 cycles: 510637910 heartbeat IPC: 1.78118 cumulative IPC: 1.38986 (Simulation time: 0 hr 42 min 18 sec) 
Heartbeat CPU 0 instructions: 850000004 cycles: 516586119 heartbeat IPC: 1.68118 cumulative IPC: 1.39358 (Simulation time: 0 hr 42 min 48 sec) 
Heartbeat CPU 0 instructions: 860000004 cycles: 522365235 heartbeat IPC: 1.73037 cumulative IPC: 1.3977 (Simulation time: 0 hr 43 min 17 sec) 
Heartbeat CPU 0 instructions: 870000000 cycles: 528220065 heartbeat IPC: 1.70799 cumulative IPC: 1.4015 (Simulation time: 0 hr 43 min 46 sec) 
Heartbeat CPU 0 instructions: 880000000 cycles: 533932775 heartbeat IPC: 1.75048 cumulative IPC: 1.40562 (Simulation time: 0 hr 44 min 15 sec) 
Heartbeat CPU 0 instructions: 890000003 cycles: 539589414 heartbeat IPC: 1.76783 cumulative IPC: 1.40981 (Simulation time: 0 hr 44 min 44 sec) 
Heartbeat CPU 0 instructions: 900000000 cycles: 545372277 heartbeat IPC: 1.72925 cumulative IPC: 1.41354 (Simulation time: 0 hr 45 min 13 sec) 
Heartbeat CPU 0 instructions: 910000004 cycles: 551096439 heartbeat IPC: 1.74698 cumulative IPC: 1.41735 (Simulation time: 0 hr 45 min 42 sec) 
Heartbeat CPU 0 instructions: 920000001 cycles: 556897385 heartbeat IPC: 1.72386 cumulative IPC: 1.42086 (Simulation time: 0 hr 46 min 11 sec) 
Heartbeat CPU 0 instructions: 930000001 cycles: 563786484 heartbeat IPC: 1.45157 cumulative IPC: 1.42127 (Simulation time: 0 hr 46 min 41 sec) 
Heartbeat CPU 0 instructions: 940000000 cycles: 570987291 heartbeat IPC: 1.38873 cumulative IPC: 1.42082 (Simulation time: 0 hr 47 min 12 sec) 
Heartbeat CPU 0 instructions: 950000002 cycles: 579071311 heartbeat IPC: 1.23701 cumulative IPC: 1.41801 (Simulation time: 0 hr 47 min 44 sec) 
Heartbeat CPU 0 instructions: 960000004 cycles: 584880073 heartbeat IPC: 1.72154 cumulative IPC: 1.42131 (Simulation time: 0 hr 48 min 13 sec) 
Heartbeat CPU 0 instructions: 970000001 cycles: 591491312 heartbeat IPC: 1.51258 cumulative IPC: 1.42242 (Simulation time: 0 hr 48 min 41 sec) 
Heartbeat CPU 0 instructions: 980000001 cycles: 600289224 heartbeat IPC: 1.13663 cumulative IPC: 1.41785 (Simulation time: 0 hr 49 min 13 sec) 
Heartbeat CPU 0 instructions: 990000000 cycles: 609551688 heartbeat IPC: 1.07963 cumulative IPC: 1.41225 (Simulation time: 0 hr 49 min 44 sec) 
Heartbeat CPU 0 instructions: 1000000000 cycles: 616977286 heartbeat IPC: 1.34669 cumulative IPC: 1.41139 (Simulation time: 0 hr 50 min 15 sec) 
Heartbeat CPU 0 instructions: 1010000004 cycles: 623730561 heartbeat IPC: 1.48076 cumulative IPC: 1.41221 (Simulation time: 0 hr 50 min 44 sec) 
Heartbeat CPU 0 instructions: 1020000000 cycles: 633527134 heartbeat IPC: 1.02076 cumulative IPC: 1.40563 (Simulation time: 0 hr 51 min 16 sec) 
Heartbeat CPU 0 instructions: 1030000003 cycles: 644395032 heartbeat IPC: 0.920141 cumulative IPC: 1.39675 (Simulation time: 0 hr 51 min 49 sec) 
Heartbeat CPU 0 instructions: 1040000003 cycles: 655403599 heartbeat IPC: 0.908383 cumulative IPC: 1.38787 (Simulation time: 0 hr 52 min 22 sec) 
Heartbeat CPU 0 instructions: 1050000000 cycles: 665634351 heartbeat IPC: 0.977445 cumulative IPC: 1.38105 (Simulation time: 0 hr 52 min 55 sec) 
Heartbeat CPU 0 instructions: 1060000000 cycles: 674439454 heartbeat IPC: 1.13571 cumulative IPC: 1.37759 (Simulation time: 0 hr 53 min 26 sec) 
Heartbeat CPU 0 instructions: 1070000001 cycles: 681075935 heartbeat IPC: 1.50682 cumulative IPC: 1.37895 (Simulation time: 0 hr 53 min 55 sec) 
Heartbeat CPU 0 instructions: 1080000004 cycles: 687214795 heartbeat IPC: 1.62897 cumulative IPC: 1.38136 (Simulation time: 0 hr 54 min 24 sec) 
Heartbeat CPU 0 instructions: 1090000002 cycles: 695940181 heartbeat IPC: 1.14608 cumulative IPC: 1.37818 (Simulation time: 0 hr 54 min 57 sec) 
Heartbeat CPU 0 instructions: 1100000004 cycles: 704243776 heartbeat IPC: 1.2043 cumulative IPC: 1.37597 (Simulation time: 0 hr 55 min 28 sec) 
Heartbeat CPU 0 instructions: 1110000000 cycles: 714515062 heartbeat IPC: 0.973588 cumulative IPC: 1.36975 (Simulation time: 0 hr 56 min 1 sec) 
Heartbeat CPU 0 instructions: 1120000004 cycles: 723864048 heartbeat IPC: 1.06964 cumulative IPC: 1.36559 (Simulation time: 0 hr 56 min 32 sec) 
Heartbeat CPU 0 instructions: 1130000002 cycles: 730505502 heartbeat IPC: 1.50569 cumulative IPC: 1.36695 (Simulation time: 0 hr 57 min 2 sec) 
Heartbeat CPU 0 instructions: 1140000003 cycles: 737876814 heartbeat IPC: 1.35661 cumulative IPC: 1.36684 (Simulation time: 0 hr 57 min 33 sec) 
Heartbeat CPU 0 instructions: 1150000003 cycles: 744139110 heartbeat IPC: 1.59686 cumulative IPC: 1.36892 (Simulation time: 0 hr 58 min 3 sec) 
Heartbeat CPU 0 instructions: 1160000003 cycles: 750447178 heartbeat IPC: 1.58527 cumulative IPC: 1.37087 (Simulation time: 0 hr 58 min 33 sec) 
Heartbeat CPU 0 instructions: 1170000001 cycles: 756635482 heartbeat IPC: 1.61595 cumulative IPC: 1.37301 (Simulation time: 0 hr 59 min 3 sec) 
Heartbeat CPU 0 instructions: 1180000002 cycles: 762807189 heartbeat IPC: 1.6203 cumulative IPC: 1.37516 (Simulation time: 0 hr 59 min 33 sec) 
Heartbeat CPU 0 instructions: 1190000004 cycles: 769090085 heartbeat IPC: 1.59162 cumulative IPC: 1.37705 (Simulation time: 1 hr 0 min 3 sec) 
Heartbeat CPU 0 instructions: 1200000004 cycles: 776825164 heartbeat IPC: 1.29281 cumulative IPC: 1.37615 (Simulation time: 1 hr 0 min 35 sec) 
Finished CPU 0 instructions: 1000000002 cycles: 726664657 cumulative IPC: 1.37615 (Simulation time: 1 hr 0 min 35 sec) 

ChampSim completed all CPUs

Region of Interest Statistics

CPU 0 cumulative IPC: 1.37615 instructions: 1000000002 cycles: 726664657
cpu0_DTLB TOTAL     ACCESS:  176564169  HIT:  171600032  MISS:    4964137
cpu0_DTLB LOAD      ACCESS:  138835973  HIT:  135874106  MISS:    2961867
cpu0_DTLB RFO       ACCESS:   37728196  HIT:   35725926  MISS:    2002270
cpu0_DTLB PREFETCH  ACCESS:          0  HIT:          0  MISS:          0
cpu0_DTLB WRITEBACK ACCESS:          0  HIT:          0  MISS:          0
cpu0_DTLB TRANSLATION ACCESS:          0  HIT:          0  MISS:          0
cpu0_DTLB PREFETCH  REQUESTED:          0  ISSUED:          0  USEFUL:          0  USELESS:          0
cpu0_DTLB AVERAGE MISS LATENCY: 11.4714 cycles
cpu0_ITLB TOTAL     ACCESS:   85839476  HIT:   85839473  MISS:          3
cpu0_ITLB LOAD      ACCESS:   85839476  HIT:   85839473  MISS:          3
cpu0_ITLB RFO       ACCESS:          0  HIT:          0  MISS:          0
cpu0_ITLB PREFETCH  ACCESS:          0  HIT:          0  MISS:          0
cpu0_ITLB WRITEBACK ACCESS:          0  HIT:          0  MISS:          0
cpu0_ITLB TRANSLATION ACCESS:          0  HIT:          0  MISS:          0
cpu0_ITLB PREFETCH  REQUESTED:          0  ISSUED:          0  USEFUL:          0  USELESS:          0
cpu0_ITLB AVERAGE MISS LATENCY: 222.667 cycles
cpu0_L1I TOTAL     ACCESS:   18007095  HIT:   18006395  MISS:        700
cpu0_L1I LOAD      ACCESS:   18007095  HIT:   18006395  MISS:        700
cpu0_L1I RFO       ACCESS:          0  HIT:          0  MISS:          0
cpu0_L1I PREFETCH  ACCESS:          0  HIT:          0  MISS:          0
cpu0_L1I WRITEBACK ACCESS:          0  HIT:          0  MISS:          0
cpu0_L1I TRANSLATION ACCESS:          0  HIT:          0  MISS:          0
cpu0_L1I PREFETCH  REQUESTED:          0  ISSUED:          0  USEFUL:          0  USELESS:          0
cpu0_L1I AVERAGE MISS LATENCY: 62.5029 cycles
cpu0_STLB TOTAL     ACCESS:    4964140  HIT:    4947428  MISS:      16712
cpu0_STLB LOAD      ACCESS:    2961870  HIT:    2949243  MISS:      12627
cpu0_STLB RFO       ACCESS:    2002270  HIT:    1998185  MISS:       4085
cpu0_STLB PREFETCH  ACCESS:          0  HIT:          0  MISS:          0
cpu0_STLB WRITEBACK ACCESS:          0  HIT:          0  MISS:          0
cpu0_STLB TRANSLATION ACCESS:          0  HIT:          0  MISS:          0
cpu0_STLB PREFETCH  REQUESTED:          0  ISSUED:          0  USEFUL:          0  USELESS:          0
cpu0_STLB AVERAGE MISS LATENCY: 137.19 cycles
cpu0_L1D TOTAL     ACCESS:  185911019  HIT:  180886078  MISS:    5024941
cpu0_L1D LOAD      ACCESS:  122544202  HIT:  118779912  MISS:    3764290
cpu0_L1D RFO       ACCESS:   63350171  HIT:   62097115  MISS:    1253056
cpu0_L1D PREFETCH  ACCESS:          0  HIT:          0  MISS:          0
cpu0_L1D WRITEBACK ACCESS:          0  HIT:          0  MISS:          0
cpu0_L1D TRANSLATION ACCESS:      16646  HIT:       9051  MISS:       7595
cpu0_L1D PREFETCH  REQUESTED:          0  ISSUED:          0  USEFUL:          0  USELESS:          0
cpu0_L1D AVERAGE MISS LATENCY: 74.9577 cycles
cpu0_L2C TOTAL     ACCESS:    9167311  HIT:    7237442  MISS:    1929869
cpu0_L2C LOAD      ACCESS:    3764824  HIT:    2436805  MISS:    1328019
cpu0_L2C RFO       ACCESS:    1252834  HIT:     802263  MISS:     450571
cpu0_L2C PREFETCH  ACCESS:     459091  HIT:     314057  MISS:     145034
cpu0_L2C WRITEBACK ACCESS:    3682967  HIT:    3677069  MISS:       5898
cpu0_L2C TRANSLATION ACCESS:       7595  HIT:       7248  MISS:        347
cpu0_L2C PREFETCH  REQUESTED:     728822  ISSUED:     649445  USEFUL:     143926  USELESS:      39920
cpu0_L2C AVERAGE MISS LATENCY: 171.296 cycles
LLC TOTAL     ACCESS:    3325178  HIT:    2079210  MISS:    1245968
LLC LOAD      ACCESS:    1289135  HIT:     593173  MISS:     695962
LLC RFO       ACCESS:     450565  HIT:      66380  MISS:     384185
LLC PREFETCH  ACCESS:     250837  HIT:      95653  MISS:     155184
LLC WRITEBACK ACCESS:    1334294  HIT:    1323725  MISS:      10569
LLC TRANSLATION ACCESS:        347  HIT:        279  MISS:         68
LLC PREFETCH  REQUESTED:          0  ISSUED:          0  USEFUL:          0  USELESS:          0
LLC AVERAGE MISS LATENCY: 288.485 cycles
Printing the final status 

DRAM Statistics
 CHANNEL 0
 RQ ROW_BUFFER_HIT:      86558  ROW_BUFFER_MISS:    1148823
 DBUS AVG_CONGESTED_CYCLE:    3.90186
 WQ ROW_BUFFER_HIT:     175516  ROW_BUFFER_MISS:     716319  FULL:          0


CPU 0 Branch Prediction Accuracy: 89.8884% MPKI: 15.2201 Average ROB Occupancy at Mispredict: 40.1592
Branch type MPKI
BRANCH_DIRECT_JUMP: 8e-06
BRANCH_INDIRECT: 0.731136
BRANCH_CONDITIONAL: 14.4871
BRANCH_DIRECT_CALL: 5e-06
BRANCH_INDIRECT_CALL: 0.00188
BRANCH_RETURN: 5e-06

***************** Done with 657.xz_s-3167B.champsimtrace.xz using ppf-spp-dev-3, on Wed Apr 20 19:56:13 CDT 2022 ******************
