Started running file 600.perlbench_s-210B.champsimtrace.xz at time Wed Apr 20 11:42:08 CDT 2022 with prefetcher ppf-spp-dev-3

*** ChampSim Multicore Out-of-Order Simulator ***

Warmup Instructions: 200000000
Simulation Instructions: 1000000000
Number of CPUs: 1
Off-chip DRAM Size: 4 GiB Channels: 1 Width: 64-bit Data Rate: 3200 MT/s

VirtualMemory physical capacity: 8588881920 num_ppages: 2096895
VirtualMemory page size: 4096 log2_page_size: 12

CPU 0 runs /home/faculty/p/pgratz/dpc3_traces/600.perlbench_s-210B.champsimtrace.xz
CPU 0 Bimodal branch predictor
Basic BTB sets: 1024 ways: 8 indirect buffer size: 4096 RAS size: 64
cpu0_L2C PPF SPP DEV Prefetcher
Heartbeat CPU 0 instructions: 10000003 cycles: 2511519 heartbeat IPC: 3.98166 cumulative IPC: 3.98166 (Simulation time: 0 hr 0 min 30 sec) 
Heartbeat CPU 0 instructions: 20000003 cycles: 5011519 heartbeat IPC: 4 cumulative IPC: 3.99081 (Simulation time: 0 hr 1 min 3 sec) 
Heartbeat CPU 0 instructions: 30000003 cycles: 7511519 heartbeat IPC: 4 cumulative IPC: 3.99387 (Simulation time: 0 hr 1 min 35 sec) 
Heartbeat CPU 0 instructions: 40000001 cycles: 10011982 heartbeat IPC: 3.99926 cumulative IPC: 3.99521 (Simulation time: 0 hr 2 min 8 sec) 
Heartbeat CPU 0 instructions: 50000003 cycles: 12512568 heartbeat IPC: 3.99906 cumulative IPC: 3.99598 (Simulation time: 0 hr 2 min 40 sec) 
Heartbeat CPU 0 instructions: 60000002 cycles: 15013097 heartbeat IPC: 3.99915 cumulative IPC: 3.99651 (Simulation time: 0 hr 3 min 13 sec) 
Heartbeat CPU 0 instructions: 70000002 cycles: 17513097 heartbeat IPC: 4 cumulative IPC: 3.99701 (Simulation time: 0 hr 3 min 46 sec) 
Heartbeat CPU 0 instructions: 80000002 cycles: 20013097 heartbeat IPC: 4 cumulative IPC: 3.99738 (Simulation time: 0 hr 4 min 20 sec) 
Heartbeat CPU 0 instructions: 90000000 cycles: 22521339 heartbeat IPC: 3.98686 cumulative IPC: 3.99621 (Simulation time: 0 hr 4 min 51 sec) 
Heartbeat CPU 0 instructions: 100000000 cycles: 25022556 heartbeat IPC: 3.99805 cumulative IPC: 3.99639 (Simulation time: 0 hr 5 min 23 sec) 
Heartbeat CPU 0 instructions: 110000000 cycles: 27522556 heartbeat IPC: 4 cumulative IPC: 3.99672 (Simulation time: 0 hr 5 min 56 sec) 
Heartbeat CPU 0 instructions: 120000000 cycles: 30022556 heartbeat IPC: 4 cumulative IPC: 3.99699 (Simulation time: 0 hr 6 min 29 sec) 
Heartbeat CPU 0 instructions: 130000002 cycles: 32523245 heartbeat IPC: 3.9989 cumulative IPC: 3.99714 (Simulation time: 0 hr 7 min 1 sec) 
Heartbeat CPU 0 instructions: 140000001 cycles: 35023515 heartbeat IPC: 3.99957 cumulative IPC: 3.99731 (Simulation time: 0 hr 7 min 33 sec) 
Heartbeat CPU 0 instructions: 150000002 cycles: 37523823 heartbeat IPC: 3.99951 cumulative IPC: 3.99746 (Simulation time: 0 hr 8 min 6 sec) 
Heartbeat CPU 0 instructions: 160000002 cycles: 40023823 heartbeat IPC: 4 cumulative IPC: 3.99762 (Simulation time: 0 hr 8 min 39 sec) 
Heartbeat CPU 0 instructions: 170000003 cycles: 42525201 heartbeat IPC: 3.9978 cumulative IPC: 3.99763 (Simulation time: 0 hr 9 min 11 sec) 
Heartbeat CPU 0 instructions: 180000003 cycles: 45025201 heartbeat IPC: 4 cumulative IPC: 3.99776 (Simulation time: 0 hr 9 min 44 sec) 
Heartbeat CPU 0 instructions: 190000003 cycles: 47525201 heartbeat IPC: 4 cumulative IPC: 3.99788 (Simulation time: 0 hr 10 min 18 sec) 
Heartbeat CPU 0 instructions: 200000003 cycles: 50026057 heartbeat IPC: 3.99863 cumulative IPC: 3.99792 (Simulation time: 0 hr 10 min 49 sec) 

Warmup complete CPU 0 instructions: 200000003 cycles: 50026057 (Simulation time: 0 hr 10 min 49 sec) 

Heartbeat CPU 0 instructions: 210000003 cycles: 55332056 heartbeat IPC: 1.88466 cumulative IPC: 1.88466 (Simulation time: 0 hr 11 min 31 sec) 
Heartbeat CPU 0 instructions: 220000003 cycles: 60691193 heartbeat IPC: 1.86597 cumulative IPC: 1.87527 (Simulation time: 0 hr 12 min 13 sec) 
Heartbeat CPU 0 instructions: 230000003 cycles: 65999632 heartbeat IPC: 1.88379 cumulative IPC: 1.8781 (Simulation time: 0 hr 12 min 55 sec) 
Heartbeat CPU 0 instructions: 240000004 cycles: 71215576 heartbeat IPC: 1.9172 cumulative IPC: 1.88773 (Simulation time: 0 hr 13 min 37 sec) 
Heartbeat CPU 0 instructions: 250000004 cycles: 76144035 heartbeat IPC: 2.02903 cumulative IPC: 1.91439 (Simulation time: 0 hr 14 min 15 sec) 
Heartbeat CPU 0 instructions: 260000001 cycles: 81298084 heartbeat IPC: 1.94022 cumulative IPC: 1.91865 (Simulation time: 0 hr 14 min 57 sec) 
Heartbeat CPU 0 instructions: 270000002 cycles: 86586998 heartbeat IPC: 1.89075 cumulative IPC: 1.91461 (Simulation time: 0 hr 15 min 37 sec) 
Heartbeat CPU 0 instructions: 280000003 cycles: 92032303 heartbeat IPC: 1.83644 cumulative IPC: 1.90448 (Simulation time: 0 hr 16 min 16 sec) 
Heartbeat CPU 0 instructions: 290000000 cycles: 97240700 heartbeat IPC: 1.91998 cumulative IPC: 1.90619 (Simulation time: 0 hr 16 min 58 sec) 
Heartbeat CPU 0 instructions: 300000003 cycles: 102739006 heartbeat IPC: 1.81874 cumulative IPC: 1.89707 (Simulation time: 0 hr 17 min 40 sec) 
Heartbeat CPU 0 instructions: 310000002 cycles: 108060856 heartbeat IPC: 1.87905 cumulative IPC: 1.89541 (Simulation time: 0 hr 18 min 22 sec) 
Heartbeat CPU 0 instructions: 320000001 cycles: 113239603 heartbeat IPC: 1.93097 cumulative IPC: 1.89833 (Simulation time: 0 hr 19 min 3 sec) 
Heartbeat CPU 0 instructions: 330000004 cycles: 118413066 heartbeat IPC: 1.93294 cumulative IPC: 1.90095 (Simulation time: 0 hr 19 min 41 sec) 
Heartbeat CPU 0 instructions: 340000002 cycles: 123787217 heartbeat IPC: 1.86076 cumulative IPC: 1.89802 (Simulation time: 0 hr 20 min 19 sec) 
Heartbeat CPU 0 instructions: 350000003 cycles: 129271037 heartbeat IPC: 1.82355 cumulative IPC: 1.89286 (Simulation time: 0 hr 20 min 58 sec) 
Heartbeat CPU 0 instructions: 360000002 cycles: 134502099 heartbeat IPC: 1.91166 cumulative IPC: 1.89403 (Simulation time: 0 hr 21 min 39 sec) 
Heartbeat CPU 0 instructions: 370000001 cycles: 139926035 heartbeat IPC: 1.84368 cumulative IPC: 1.89099 (Simulation time: 0 hr 22 min 18 sec) 
Heartbeat CPU 0 instructions: 380000003 cycles: 145318939 heartbeat IPC: 1.85429 cumulative IPC: 1.88891 (Simulation time: 0 hr 22 min 59 sec) 
Heartbeat CPU 0 instructions: 390000000 cycles: 150641417 heartbeat IPC: 1.87882 cumulative IPC: 1.88838 (Simulation time: 0 hr 23 min 41 sec) 
Heartbeat CPU 0 instructions: 400000001 cycles: 155809563 heartbeat IPC: 1.93493 cumulative IPC: 1.89065 (Simulation time: 0 hr 24 min 23 sec) 
Heartbeat CPU 0 instructions: 410000000 cycles: 160751154 heartbeat IPC: 2.02364 cumulative IPC: 1.89659 (Simulation time: 0 hr 25 min 1 sec) 
Heartbeat CPU 0 instructions: 420000001 cycles: 165946416 heartbeat IPC: 1.92483 cumulative IPC: 1.89785 (Simulation time: 0 hr 25 min 41 sec) 
Heartbeat CPU 0 instructions: 430000000 cycles: 171619710 heartbeat IPC: 1.76264 cumulative IPC: 1.89155 (Simulation time: 0 hr 26 min 18 sec) 
Heartbeat CPU 0 instructions: 440000000 cycles: 176986189 heartbeat IPC: 1.86342 cumulative IPC: 1.89036 (Simulation time: 0 hr 26 min 58 sec) 
Heartbeat CPU 0 instructions: 450000001 cycles: 182373282 heartbeat IPC: 1.85629 cumulative IPC: 1.88897 (Simulation time: 0 hr 27 min 37 sec) 
Heartbeat CPU 0 instructions: 460000000 cycles: 187815623 heartbeat IPC: 1.83744 cumulative IPC: 1.88694 (Simulation time: 0 hr 28 min 18 sec) 
Heartbeat CPU 0 instructions: 470000001 cycles: 196061005 heartbeat IPC: 1.2128 cumulative IPC: 1.84887 (Simulation time: 0 hr 29 min 0 sec) 
Heartbeat CPU 0 instructions: 480000002 cycles: 203961710 heartbeat IPC: 1.26571 cumulative IPC: 1.81894 (Simulation time: 0 hr 29 min 39 sec) 
Heartbeat CPU 0 instructions: 490000001 cycles: 210001332 heartbeat IPC: 1.65573 cumulative IPC: 1.81278 (Simulation time: 0 hr 30 min 17 sec) 
Heartbeat CPU 0 instructions: 500000003 cycles: 216483340 heartbeat IPC: 1.54273 cumulative IPC: 1.80226 (Simulation time: 0 hr 30 min 55 sec) 
Heartbeat CPU 0 instructions: 510000001 cycles: 225832449 heartbeat IPC: 1.06962 cumulative IPC: 1.7633 (Simulation time: 0 hr 31 min 33 sec) 
Heartbeat CPU 0 instructions: 520000000 cycles: 239546104 heartbeat IPC: 0.7292 cumulative IPC: 1.68848 (Simulation time: 0 hr 32 min 19 sec) 
Heartbeat CPU 0 instructions: 530000003 cycles: 252475522 heartbeat IPC: 0.77343 cumulative IPC: 1.63004 (Simulation time: 0 hr 33 min 2 sec) 
Heartbeat CPU 0 instructions: 540000001 cycles: 263261635 heartbeat IPC: 0.927118 cumulative IPC: 1.59448 (Simulation time: 0 hr 33 min 45 sec) 
Heartbeat CPU 0 instructions: 550000002 cycles: 276533301 heartbeat IPC: 0.753485 cumulative IPC: 1.5452 (Simulation time: 0 hr 34 min 30 sec) 
Heartbeat CPU 0 instructions: 560000000 cycles: 282665524 heartbeat IPC: 1.63073 cumulative IPC: 1.54746 (Simulation time: 0 hr 35 min 11 sec) 
Heartbeat CPU 0 instructions: 570000000 cycles: 288618992 heartbeat IPC: 1.67969 cumulative IPC: 1.55076 (Simulation time: 0 hr 35 min 51 sec) 
Heartbeat CPU 0 instructions: 580000000 cycles: 294753964 heartbeat IPC: 1.63 cumulative IPC: 1.55274 (Simulation time: 0 hr 36 min 33 sec) 
Heartbeat CPU 0 instructions: 590000001 cycles: 300831344 heartbeat IPC: 1.64545 cumulative IPC: 1.55499 (Simulation time: 0 hr 37 min 14 sec) 
Heartbeat CPU 0 instructions: 600000000 cycles: 310954915 heartbeat IPC: 0.987794 cumulative IPC: 1.53298 (Simulation time: 0 hr 37 min 58 sec) 
Heartbeat CPU 0 instructions: 610000000 cycles: 323420758 heartbeat IPC: 0.802192 cumulative IPC: 1.49966 (Simulation time: 0 hr 38 min 43 sec) 
Heartbeat CPU 0 instructions: 620000001 cycles: 336200980 heartbeat IPC: 0.782459 cumulative IPC: 1.46763 (Simulation time: 0 hr 39 min 27 sec) 
Heartbeat CPU 0 instructions: 630000002 cycles: 345788034 heartbeat IPC: 1.04307 cumulative IPC: 1.45387 (Simulation time: 0 hr 40 min 13 sec) 
Heartbeat CPU 0 instructions: 640000000 cycles: 356097139 heartbeat IPC: 0.970016 cumulative IPC: 1.43757 (Simulation time: 0 hr 40 min 59 sec) 
Heartbeat CPU 0 instructions: 650000000 cycles: 369058388 heartbeat IPC: 0.771531 cumulative IPC: 1.41052 (Simulation time: 0 hr 41 min 45 sec) 
Heartbeat CPU 0 instructions: 660000000 cycles: 381371468 heartbeat IPC: 0.812144 cumulative IPC: 1.38828 (Simulation time: 0 hr 42 min 29 sec) 
Heartbeat CPU 0 instructions: 670000003 cycles: 389320300 heartbeat IPC: 1.25805 cumulative IPC: 1.38523 (Simulation time: 0 hr 43 min 13 sec) 
Heartbeat CPU 0 instructions: 680000000 cycles: 403585429 heartbeat IPC: 0.70101 cumulative IPC: 1.35762 (Simulation time: 0 hr 44 min 2 sec) 
Heartbeat CPU 0 instructions: 690000001 cycles: 416397171 heartbeat IPC: 0.780534 cumulative IPC: 1.33744 (Simulation time: 0 hr 44 min 47 sec) 
Heartbeat CPU 0 instructions: 700000000 cycles: 421461599 heartbeat IPC: 1.97456 cumulative IPC: 1.34613 (Simulation time: 0 hr 45 min 30 sec) 
Heartbeat CPU 0 instructions: 710000003 cycles: 426836559 heartbeat IPC: 1.86048 cumulative IPC: 1.35347 (Simulation time: 0 hr 46 min 9 sec) 
Heartbeat CPU 0 instructions: 720000003 cycles: 432265111 heartbeat IPC: 1.84211 cumulative IPC: 1.36041 (Simulation time: 0 hr 46 min 47 sec) 
Heartbeat CPU 0 instructions: 730000001 cycles: 437490997 heartbeat IPC: 1.91355 cumulative IPC: 1.36787 (Simulation time: 0 hr 47 min 26 sec) 
Heartbeat CPU 0 instructions: 740000002 cycles: 442615351 heartbeat IPC: 1.95147 cumulative IPC: 1.37548 (Simulation time: 0 hr 48 min 5 sec) 
Heartbeat CPU 0 instructions: 750000001 cycles: 447720635 heartbeat IPC: 1.95875 cumulative IPC: 1.38297 (Simulation time: 0 hr 48 min 48 sec) 
Heartbeat CPU 0 instructions: 760000001 cycles: 452909091 heartbeat IPC: 1.92736 cumulative IPC: 1.38998 (Simulation time: 0 hr 49 min 29 sec) 
Heartbeat CPU 0 instructions: 770000002 cycles: 458065559 heartbeat IPC: 1.93931 cumulative IPC: 1.39692 (Simulation time: 0 hr 50 min 10 sec) 
Heartbeat CPU 0 instructions: 780000002 cycles: 463471671 heartbeat IPC: 1.84976 cumulative IPC: 1.40284 (Simulation time: 0 hr 50 min 50 sec) 
Heartbeat CPU 0 instructions: 790000000 cycles: 468624810 heartbeat IPC: 1.94056 cumulative IPC: 1.40946 (Simulation time: 0 hr 51 min 30 sec) 
Heartbeat CPU 0 instructions: 800000004 cycles: 473971900 heartbeat IPC: 1.87018 cumulative IPC: 1.41528 (Simulation time: 0 hr 52 min 10 sec) 
Heartbeat CPU 0 instructions: 810000001 cycles: 478979045 heartbeat IPC: 1.99715 cumulative IPC: 1.42207 (Simulation time: 0 hr 52 min 51 sec) 
Heartbeat CPU 0 instructions: 820000002 cycles: 483891701 heartbeat IPC: 2.03556 cumulative IPC: 1.42901 (Simulation time: 0 hr 53 min 27 sec) 
Heartbeat CPU 0 instructions: 830000004 cycles: 488786416 heartbeat IPC: 2.04302 cumulative IPC: 1.43586 (Simulation time: 0 hr 54 min 1 sec) 
Heartbeat CPU 0 instructions: 840000003 cycles: 493824053 heartbeat IPC: 1.98506 cumulative IPC: 1.4421 (Simulation time: 0 hr 54 min 41 sec) 
Heartbeat CPU 0 instructions: 850000002 cycles: 499130864 heartbeat IPC: 1.88437 cumulative IPC: 1.44732 (Simulation time: 0 hr 55 min 20 sec) 
Heartbeat CPU 0 instructions: 860000000 cycles: 504483650 heartbeat IPC: 1.86819 cumulative IPC: 1.45228 (Simulation time: 0 hr 55 min 59 sec) 
Heartbeat CPU 0 instructions: 870000004 cycles: 509920142 heartbeat IPC: 1.83942 cumulative IPC: 1.45686 (Simulation time: 0 hr 56 min 39 sec) 
Heartbeat CPU 0 instructions: 880000001 cycles: 515126073 heartbeat IPC: 1.92089 cumulative IPC: 1.46205 (Simulation time: 0 hr 57 min 20 sec) 
Heartbeat CPU 0 instructions: 890000001 cycles: 520396722 heartbeat IPC: 1.8973 cumulative IPC: 1.46693 (Simulation time: 0 hr 58 min 1 sec) 
Heartbeat CPU 0 instructions: 900000001 cycles: 525484137 heartbeat IPC: 1.96563 cumulative IPC: 1.47226 (Simulation time: 0 hr 58 min 43 sec) 
Heartbeat CPU 0 instructions: 910000002 cycles: 530837507 heartbeat IPC: 1.86798 cumulative IPC: 1.47667 (Simulation time: 0 hr 59 min 20 sec) 
Heartbeat CPU 0 instructions: 920000001 cycles: 536285156 heartbeat IPC: 1.83565 cumulative IPC: 1.48069 (Simulation time: 0 hr 59 min 58 sec) 
Heartbeat CPU 0 instructions: 930000002 cycles: 541450596 heartbeat IPC: 1.93594 cumulative IPC: 1.48548 (Simulation time: 1 hr 0 min 37 sec) 
Heartbeat CPU 0 instructions: 940000002 cycles: 547005689 heartbeat IPC: 1.80015 cumulative IPC: 1.48899 (Simulation time: 1 hr 1 min 16 sec) 
Heartbeat CPU 0 instructions: 950000003 cycles: 552662370 heartbeat IPC: 1.76782 cumulative IPC: 1.49213 (Simulation time: 1 hr 1 min 58 sec) 
Heartbeat CPU 0 instructions: 960000000 cycles: 557663056 heartbeat IPC: 1.99972 cumulative IPC: 1.49713 (Simulation time: 1 hr 2 min 40 sec) 
Heartbeat CPU 0 instructions: 970000000 cycles: 562712750 heartbeat IPC: 1.98032 cumulative IPC: 1.50189 (Simulation time: 1 hr 3 min 23 sec) 
Heartbeat CPU 0 instructions: 980000000 cycles: 568129530 heartbeat IPC: 1.84612 cumulative IPC: 1.50549 (Simulation time: 1 hr 4 min 3 sec) 
Heartbeat CPU 0 instructions: 990000004 cycles: 573193957 heartbeat IPC: 1.97456 cumulative IPC: 1.51003 (Simulation time: 1 hr 4 min 45 sec) 
Heartbeat CPU 0 instructions: 1000000000 cycles: 578273650 heartbeat IPC: 1.96862 cumulative IPC: 1.51444 (Simulation time: 1 hr 5 min 27 sec) 
Heartbeat CPU 0 instructions: 1010000002 cycles: 583051678 heartbeat IPC: 2.09291 cumulative IPC: 1.51963 (Simulation time: 1 hr 6 min 5 sec) 
Heartbeat CPU 0 instructions: 1020000004 cycles: 587961453 heartbeat IPC: 2.03675 cumulative IPC: 1.52435 (Simulation time: 1 hr 6 min 48 sec) 
Heartbeat CPU 0 instructions: 1030000000 cycles: 593324953 heartbeat IPC: 1.86445 cumulative IPC: 1.5277 (Simulation time: 1 hr 7 min 27 sec) 
Heartbeat CPU 0 instructions: 1040000001 cycles: 598546125 heartbeat IPC: 1.91528 cumulative IPC: 1.53139 (Simulation time: 1 hr 8 min 8 sec) 
Heartbeat CPU 0 instructions: 1050000000 cycles: 603591260 heartbeat IPC: 1.98211 cumulative IPC: 1.5355 (Simulation time: 1 hr 8 min 50 sec) 
Heartbeat CPU 0 instructions: 1060000002 cycles: 608835786 heartbeat IPC: 1.90675 cumulative IPC: 1.53899 (Simulation time: 1 hr 9 min 33 sec) 
Heartbeat CPU 0 instructions: 1070000000 cycles: 613935867 heartbeat IPC: 1.96075 cumulative IPC: 1.5428 (Simulation time: 1 hr 10 min 15 sec) 
Heartbeat CPU 0 instructions: 1080000004 cycles: 618858507 heartbeat IPC: 2.03143 cumulative IPC: 1.54703 (Simulation time: 1 hr 10 min 54 sec) 
Heartbeat CPU 0 instructions: 1090000000 cycles: 624102372 heartbeat IPC: 1.90699 cumulative IPC: 1.55032 (Simulation time: 1 hr 11 min 35 sec) 
Heartbeat CPU 0 instructions: 1100000000 cycles: 629693796 heartbeat IPC: 1.78845 cumulative IPC: 1.55261 (Simulation time: 1 hr 12 min 12 sec) 
Heartbeat CPU 0 instructions: 1110000000 cycles: 634647607 heartbeat IPC: 2.01865 cumulative IPC: 1.55656 (Simulation time: 1 hr 12 min 53 sec) 
Heartbeat CPU 0 instructions: 1120000001 cycles: 639784308 heartbeat IPC: 1.94677 cumulative IPC: 1.55996 (Simulation time: 1 hr 13 min 35 sec) 
Heartbeat CPU 0 instructions: 1130000002 cycles: 645224014 heartbeat IPC: 1.83833 cumulative IPC: 1.56251 (Simulation time: 1 hr 14 min 13 sec) 
Heartbeat CPU 0 instructions: 1140000003 cycles: 650439572 heartbeat IPC: 1.91734 cumulative IPC: 1.56559 (Simulation time: 1 hr 14 min 55 sec) 
Heartbeat CPU 0 instructions: 1150000000 cycles: 655495915 heartbeat IPC: 1.97771 cumulative IPC: 1.56903 (Simulation time: 1 hr 15 min 37 sec) 
Heartbeat CPU 0 instructions: 1160000001 cycles: 660424232 heartbeat IPC: 2.02909 cumulative IPC: 1.57274 (Simulation time: 1 hr 16 min 18 sec) 
Heartbeat CPU 0 instructions: 1170000000 cycles: 665369734 heartbeat IPC: 2.02204 cumulative IPC: 1.57635 (Simulation time: 1 hr 16 min 58 sec) 
Heartbeat CPU 0 instructions: 1180000000 cycles: 670827260 heartbeat IPC: 1.83233 cumulative IPC: 1.57861 (Simulation time: 1 hr 17 min 36 sec) 
Heartbeat CPU 0 instructions: 1190000000 cycles: 676055508 heartbeat IPC: 1.91269 cumulative IPC: 1.5814 (Simulation time: 1 hr 18 min 17 sec) 
Heartbeat CPU 0 instructions: 1200000000 cycles: 681454310 heartbeat IPC: 1.85226 cumulative IPC: 1.58371 (Simulation time: 1 hr 18 min 55 sec) 
Finished CPU 0 instructions: 1000000001 cycles: 631428254 cumulative IPC: 1.58371 (Simulation time: 1 hr 18 min 55 sec) 

ChampSim completed all CPUs

Region of Interest Statistics

CPU 0 cumulative IPC: 1.58371 instructions: 1000000001 cycles: 631428254
cpu0_DTLB TOTAL     ACCESS:  184706436  HIT:  183657200  MISS:    1049236
cpu0_DTLB LOAD      ACCESS:  102721702  HIT:  101770714  MISS:     950988
cpu0_DTLB RFO       ACCESS:   81984734  HIT:   81886486  MISS:      98248
cpu0_DTLB PREFETCH  ACCESS:          0  HIT:          0  MISS:          0
cpu0_DTLB WRITEBACK ACCESS:          0  HIT:          0  MISS:          0
cpu0_DTLB TRANSLATION ACCESS:          0  HIT:          0  MISS:          0
cpu0_DTLB PREFETCH  REQUESTED:          0  ISSUED:          0  USEFUL:          0  USELESS:          0
cpu0_DTLB AVERAGE MISS LATENCY: 11.9762 cycles
cpu0_ITLB TOTAL     ACCESS:   72541629  HIT:   72423201  MISS:     118428
cpu0_ITLB LOAD      ACCESS:   72541629  HIT:   72423201  MISS:     118428
cpu0_ITLB RFO       ACCESS:          0  HIT:          0  MISS:          0
cpu0_ITLB PREFETCH  ACCESS:          0  HIT:          0  MISS:          0
cpu0_ITLB WRITEBACK ACCESS:          0  HIT:          0  MISS:          0
cpu0_ITLB TRANSLATION ACCESS:          0  HIT:          0  MISS:          0
cpu0_ITLB PREFETCH  REQUESTED:          0  ISSUED:          0  USEFUL:          0  USELESS:          0
cpu0_ITLB AVERAGE MISS LATENCY: 11.333 cycles
cpu0_L1I TOTAL     ACCESS:   56450006  HIT:   54887016  MISS:    1562990
cpu0_L1I LOAD      ACCESS:   56450006  HIT:   54887016  MISS:    1562990
cpu0_L1I RFO       ACCESS:          0  HIT:          0  MISS:          0
cpu0_L1I PREFETCH  ACCESS:          0  HIT:          0  MISS:          0
cpu0_L1I WRITEBACK ACCESS:          0  HIT:          0  MISS:          0
cpu0_L1I TRANSLATION ACCESS:          0  HIT:          0  MISS:          0
cpu0_L1I PREFETCH  REQUESTED:          0  ISSUED:          0  USEFUL:          0  USELESS:          0
cpu0_L1I AVERAGE MISS LATENCY: 13.2675 cycles
cpu0_STLB TOTAL     ACCESS:    1167664  HIT:    1162165  MISS:       5499
cpu0_STLB LOAD      ACCESS:    1069416  HIT:    1064570  MISS:       4846
cpu0_STLB RFO       ACCESS:      98248  HIT:      97595  MISS:        653
cpu0_STLB PREFETCH  ACCESS:          0  HIT:          0  MISS:          0
cpu0_STLB WRITEBACK ACCESS:          0  HIT:          0  MISS:          0
cpu0_STLB TRANSLATION ACCESS:          0  HIT:          0  MISS:          0
cpu0_STLB PREFETCH  REQUESTED:          0  ISSUED:          0  USEFUL:          0  USELESS:          0
cpu0_STLB AVERAGE MISS LATENCY: 189.949 cycles
cpu0_L1D TOTAL     ACCESS:  330392624  HIT:  329332030  MISS:    1060594
cpu0_L1D LOAD      ACCESS:  122666790  HIT:  121688105  MISS:     978685
cpu0_L1D RFO       ACCESS:  207720354  HIT:  207639612  MISS:      80742
cpu0_L1D PREFETCH  ACCESS:          0  HIT:          0  MISS:          0
cpu0_L1D WRITEBACK ACCESS:          0  HIT:          0  MISS:          0
cpu0_L1D TRANSLATION ACCESS:       5480  HIT:       4313  MISS:       1167
cpu0_L1D PREFETCH  REQUESTED:          0  ISSUED:          0  USEFUL:          0  USELESS:          0
cpu0_L1D AVERAGE MISS LATENCY: 56.8878 cycles
cpu0_L2C TOTAL     ACCESS:    4126073  HIT:    3541649  MISS:     584424
cpu0_L2C LOAD      ACCESS:    2541614  HIT:    2164767  MISS:     376847
cpu0_L2C RFO       ACCESS:      80735  HIT:      51112  MISS:      29623
cpu0_L2C PREFETCH  ACCESS:    1240249  HIT:    1064375  MISS:     175874
cpu0_L2C WRITEBACK ACCESS:     262308  HIT:     260539  MISS:       1769
cpu0_L2C TRANSLATION ACCESS:       1167  HIT:        856  MISS:        311
cpu0_L2C PREFETCH  REQUESTED:    1503050  ISSUED:    1373629  USEFUL:     114131  USELESS:      73018
cpu0_L2C AVERAGE MISS LATENCY: 120.886 cycles
LLC TOTAL     ACCESS:     779474  HIT:     362015  MISS:     417459
LLC LOAD      ACCESS:     366839  HIT:     116537  MISS:     250302
LLC RFO       ACCESS:      29564  HIT:       9164  MISS:      20400
LLC PREFETCH  ACCESS:     284222  HIT:     138497  MISS:     145725
LLC WRITEBACK ACCESS:      98538  HIT:      97571  MISS:        967
LLC TRANSLATION ACCESS:        311  HIT:        246  MISS:         65
LLC PREFETCH  REQUESTED:          0  ISSUED:          0  USEFUL:          0  USELESS:          0
LLC AVERAGE MISS LATENCY: 161.503 cycles
Printing the final status 

DRAM Statistics
 CHANNEL 0
 RQ ROW_BUFFER_HIT:      47707  ROW_BUFFER_MISS:     368784
 DBUS AVG_CONGESTED_CYCLE:    3.78395
 WQ ROW_BUFFER_HIT:      32616  ROW_BUFFER_MISS:      30914  FULL:          0


CPU 0 Branch Prediction Accuracy: 96.6639% MPKI: 4.95919 Average ROB Occupancy at Mispredict: 104.237
Branch type MPKI
BRANCH_DIRECT_JUMP: 0.001678
BRANCH_INDIRECT: 0.310558
BRANCH_CONDITIONAL: 4.50517
BRANCH_DIRECT_CALL: 0.001795
BRANCH_INDIRECT_CALL: 0.134027
BRANCH_RETURN: 0.005954

***************** Done with 600.perlbench_s-210B.champsimtrace.xz using ppf-spp-dev-3, on Wed Apr 20 13:01:03 CDT 2022 ******************
