Started running file 619.lbm_s-4268B.champsimtrace.xz at time Wed Apr 20 14:33:19 CDT 2022 with prefetcher ppf-spp-dev-3

*** ChampSim Multicore Out-of-Order Simulator ***

Warmup Instructions: 200000000
Simulation Instructions: 1000000000
Number of CPUs: 1
Off-chip DRAM Size: 4 GiB Channels: 1 Width: 64-bit Data Rate: 3200 MT/s

VirtualMemory physical capacity: 8588881920 num_ppages: 2096895
VirtualMemory page size: 4096 log2_page_size: 12

CPU 0 runs /home/faculty/p/pgratz/dpc3_traces/619.lbm_s-4268B.champsimtrace.xz
CPU 0 Bimodal branch predictor
Basic BTB sets: 1024 ways: 8 indirect buffer size: 4096 RAS size: 64
cpu0_L2C PPF SPP DEV Prefetcher
Heartbeat CPU 0 instructions: 10000001 cycles: 2591881 heartbeat IPC: 3.8582 cumulative IPC: 3.8582 (Simulation time: 0 hr 0 min 37 sec) 
Heartbeat CPU 0 instructions: 20000004 cycles: 5179824 heartbeat IPC: 3.86407 cumulative IPC: 3.86114 (Simulation time: 0 hr 1 min 14 sec) 
Heartbeat CPU 0 instructions: 30000003 cycles: 7770115 heartbeat IPC: 3.86057 cumulative IPC: 3.86095 (Simulation time: 0 hr 1 min 51 sec) 
Heartbeat CPU 0 instructions: 40000003 cycles: 10358400 heartbeat IPC: 3.86356 cumulative IPC: 3.8616 (Simulation time: 0 hr 2 min 28 sec) 
Heartbeat CPU 0 instructions: 50000000 cycles: 12946830 heartbeat IPC: 3.86334 cumulative IPC: 3.86195 (Simulation time: 0 hr 3 min 6 sec) 
Heartbeat CPU 0 instructions: 60000000 cycles: 15539907 heartbeat IPC: 3.85642 cumulative IPC: 3.86103 (Simulation time: 0 hr 3 min 43 sec) 
Heartbeat CPU 0 instructions: 70000002 cycles: 18130249 heartbeat IPC: 3.86049 cumulative IPC: 3.86095 (Simulation time: 0 hr 4 min 20 sec) 
Heartbeat CPU 0 instructions: 80000003 cycles: 20720434 heartbeat IPC: 3.86073 cumulative IPC: 3.86092 (Simulation time: 0 hr 4 min 58 sec) 
Heartbeat CPU 0 instructions: 90000004 cycles: 23314617 heartbeat IPC: 3.85478 cumulative IPC: 3.86024 (Simulation time: 0 hr 5 min 35 sec) 
Heartbeat CPU 0 instructions: 100000003 cycles: 25907939 heartbeat IPC: 3.85606 cumulative IPC: 3.85982 (Simulation time: 0 hr 6 min 12 sec) 
Heartbeat CPU 0 instructions: 110000002 cycles: 28505665 heartbeat IPC: 3.84952 cumulative IPC: 3.85888 (Simulation time: 0 hr 6 min 49 sec) 
Heartbeat CPU 0 instructions: 120000001 cycles: 31105132 heartbeat IPC: 3.84694 cumulative IPC: 3.85788 (Simulation time: 0 hr 7 min 27 sec) 
Heartbeat CPU 0 instructions: 130000003 cycles: 33697034 heartbeat IPC: 3.85817 cumulative IPC: 3.85791 (Simulation time: 0 hr 8 min 4 sec) 
Heartbeat CPU 0 instructions: 140000002 cycles: 36294460 heartbeat IPC: 3.84996 cumulative IPC: 3.85734 (Simulation time: 0 hr 8 min 41 sec) 
Heartbeat CPU 0 instructions: 150000003 cycles: 38894099 heartbeat IPC: 3.84669 cumulative IPC: 3.85663 (Simulation time: 0 hr 9 min 19 sec) 
Heartbeat CPU 0 instructions: 160000003 cycles: 41496235 heartbeat IPC: 3.843 cumulative IPC: 3.85577 (Simulation time: 0 hr 9 min 57 sec) 
Heartbeat CPU 0 instructions: 170000000 cycles: 44094357 heartbeat IPC: 3.84893 cumulative IPC: 3.85537 (Simulation time: 0 hr 10 min 34 sec) 
Heartbeat CPU 0 instructions: 180000002 cycles: 46696439 heartbeat IPC: 3.84308 cumulative IPC: 3.85468 (Simulation time: 0 hr 11 min 12 sec) 
Heartbeat CPU 0 instructions: 190000004 cycles: 49298780 heartbeat IPC: 3.84269 cumulative IPC: 3.85405 (Simulation time: 0 hr 11 min 50 sec) 
Heartbeat CPU 0 instructions: 200000003 cycles: 51895918 heartbeat IPC: 3.85039 cumulative IPC: 3.85387 (Simulation time: 0 hr 12 min 28 sec) 

Warmup complete CPU 0 instructions: 200000003 cycles: 51895918 (Simulation time: 0 hr 12 min 28 sec) 

Heartbeat CPU 0 instructions: 210000001 cycles: 98946967 heartbeat IPC: 0.212535 cumulative IPC: 0.212535 (Simulation time: 0 hr 16 min 44 sec) 
Heartbeat CPU 0 instructions: 220000000 cycles: 145750249 heartbeat IPC: 0.21366 cumulative IPC: 0.213096 (Simulation time: 0 hr 20 min 58 sec) 
Heartbeat CPU 0 instructions: 230000002 cycles: 191831239 heartbeat IPC: 0.217009 cumulative IPC: 0.214385 (Simulation time: 0 hr 25 min 10 sec) 
Heartbeat CPU 0 instructions: 240000002 cycles: 238193471 heartbeat IPC: 0.215693 cumulative IPC: 0.21471 (Simulation time: 0 hr 29 min 26 sec) 
Heartbeat CPU 0 instructions: 250000001 cycles: 283359916 heartbeat IPC: 0.221403 cumulative IPC: 0.216016 (Simulation time: 0 hr 33 min 38 sec) 
Heartbeat CPU 0 instructions: 260000000 cycles: 328660104 heartbeat IPC: 0.22075 cumulative IPC: 0.216791 (Simulation time: 0 hr 37 min 43 sec) 
Heartbeat CPU 0 instructions: 270000003 cycles: 373900262 heartbeat IPC: 0.221043 cumulative IPC: 0.217388 (Simulation time: 0 hr 41 min 56 sec) 
Heartbeat CPU 0 instructions: 280000003 cycles: 418483101 heartbeat IPC: 0.224302 cumulative IPC: 0.218229 (Simulation time: 0 hr 45 min 56 sec) 
Heartbeat CPU 0 instructions: 290000001 cycles: 463708732 heartbeat IPC: 0.221114 cumulative IPC: 0.218546 (Simulation time: 0 hr 50 min 0 sec) 
Heartbeat CPU 0 instructions: 300000001 cycles: 509552908 heartbeat IPC: 0.21813 cumulative IPC: 0.218504 (Simulation time: 0 hr 54 min 10 sec) 
Heartbeat CPU 0 instructions: 310000000 cycles: 555309247 heartbeat IPC: 0.218549 cumulative IPC: 0.218508 (Simulation time: 0 hr 58 min 18 sec) 
Heartbeat CPU 0 instructions: 320000001 cycles: 600693925 heartbeat IPC: 0.220339 cumulative IPC: 0.21866 (Simulation time: 1 hr 2 min 24 sec) 
Heartbeat CPU 0 instructions: 330000002 cycles: 645905020 heartbeat IPC: 0.221185 cumulative IPC: 0.218852 (Simulation time: 1 hr 6 min 28 sec) 
Heartbeat CPU 0 instructions: 340000003 cycles: 690334626 heartbeat IPC: 0.225075 cumulative IPC: 0.219285 (Simulation time: 1 hr 10 min 29 sec) 
Heartbeat CPU 0 instructions: 350000002 cycles: 734191529 heartbeat IPC: 0.228014 cumulative IPC: 0.219846 (Simulation time: 1 hr 14 min 25 sec) 
Heartbeat CPU 0 instructions: 360000001 cycles: 779248558 heartbeat IPC: 0.221941 cumulative IPC: 0.219976 (Simulation time: 1 hr 18 min 29 sec) 
Heartbeat CPU 0 instructions: 370000003 cycles: 823167731 heartbeat IPC: 0.227691 cumulative IPC: 0.220415 (Simulation time: 1 hr 22 min 26 sec) 
Heartbeat CPU 0 instructions: 380000003 cycles: 867760646 heartbeat IPC: 0.224251 cumulative IPC: 0.220625 (Simulation time: 1 hr 26 min 26 sec) 
Heartbeat CPU 0 instructions: 390000000 cycles: 912205913 heartbeat IPC: 0.224996 cumulative IPC: 0.220851 (Simulation time: 1 hr 30 min 27 sec) 
Heartbeat CPU 0 instructions: 400000000 cycles: 955765452 heartbeat IPC: 0.229571 cumulative IPC: 0.221271 (Simulation time: 1 hr 34 min 23 sec) 
Heartbeat CPU 0 instructions: 410000003 cycles: 1000377243 heartbeat IPC: 0.224156 cumulative IPC: 0.221407 (Simulation time: 1 hr 38 min 25 sec) 
Heartbeat CPU 0 instructions: 420000000 cycles: 1044951953 heartbeat IPC: 0.224342 cumulative IPC: 0.221538 (Simulation time: 1 hr 42 min 26 sec) 
Heartbeat CPU 0 instructions: 430000000 cycles: 1090967387 heartbeat IPC: 0.217318 cumulative IPC: 0.221351 (Simulation time: 1 hr 46 min 36 sec) 
Heartbeat CPU 0 instructions: 440000002 cycles: 1136513884 heartbeat IPC: 0.219556 cumulative IPC: 0.221276 (Simulation time: 1 hr 50 min 43 sec) 
Heartbeat CPU 0 instructions: 450000001 cycles: 1180804430 heartbeat IPC: 0.225782 cumulative IPC: 0.221453 (Simulation time: 1 hr 54 min 43 sec) 
Heartbeat CPU 0 instructions: 460000002 cycles: 1223367986 heartbeat IPC: 0.234943 cumulative IPC: 0.221943 (Simulation time: 1 hr 58 min 34 sec) 
Heartbeat CPU 0 instructions: 470000003 cycles: 1265912821 heartbeat IPC: 0.235046 cumulative IPC: 0.222402 (Simulation time: 2 hr 2 min 23 sec) 
Heartbeat CPU 0 instructions: 480000000 cycles: 1306724442 heartbeat IPC: 0.245028 cumulative IPC: 0.223138 (Simulation time: 2 hr 6 min 2 sec) 
Heartbeat CPU 0 instructions: 490000002 cycles: 1345315974 heartbeat IPC: 0.259124 cumulative IPC: 0.224212 (Simulation time: 2 hr 9 min 28 sec) 
Heartbeat CPU 0 instructions: 500000000 cycles: 1381976308 heartbeat IPC: 0.272774 cumulative IPC: 0.22555 (Simulation time: 2 hr 12 min 43 sec) 
Heartbeat CPU 0 instructions: 510000003 cycles: 1417220210 heartbeat IPC: 0.283737 cumulative IPC: 0.227052 (Simulation time: 2 hr 15 min 49 sec) 
Heartbeat CPU 0 instructions: 520000003 cycles: 1450256235 heartbeat IPC: 0.3027 cumulative IPC: 0.228839 (Simulation time: 2 hr 18 min 41 sec) 
Heartbeat CPU 0 instructions: 530000003 cycles: 1481563229 heartbeat IPC: 0.319417 cumulative IPC: 0.230823 (Simulation time: 2 hr 21 min 24 sec) 
Heartbeat CPU 0 instructions: 540000003 cycles: 1511841809 heartbeat IPC: 0.330266 cumulative IPC: 0.232885 (Simulation time: 2 hr 24 min 0 sec) 
Heartbeat CPU 0 instructions: 550000004 cycles: 1540100153 heartbeat IPC: 0.353878 cumulative IPC: 0.235183 (Simulation time: 2 hr 26 min 24 sec) 
Heartbeat CPU 0 instructions: 560000002 cycles: 1568366388 heartbeat IPC: 0.353779 cumulative IPC: 0.237393 (Simulation time: 2 hr 28 min 49 sec) 
Heartbeat CPU 0 instructions: 570000000 cycles: 1594689611 heartbeat IPC: 0.379893 cumulative IPC: 0.239825 (Simulation time: 2 hr 31 min 1 sec) 
Heartbeat CPU 0 instructions: 580000000 cycles: 1620839328 heartbeat IPC: 0.382413 cumulative IPC: 0.242201 (Simulation time: 2 hr 33 min 13 sec) 
Heartbeat CPU 0 instructions: 590000002 cycles: 1645897415 heartbeat IPC: 0.399073 cumulative IPC: 0.244667 (Simulation time: 2 hr 35 min 18 sec) 
Heartbeat CPU 0 instructions: 600000004 cycles: 1670115561 heartbeat IPC: 0.412914 cumulative IPC: 0.247185 (Simulation time: 2 hr 37 min 18 sec) 
Heartbeat CPU 0 instructions: 610000002 cycles: 1693290861 heartbeat IPC: 0.431494 cumulative IPC: 0.249788 (Simulation time: 2 hr 39 min 12 sec) 
Heartbeat CPU 0 instructions: 620000000 cycles: 1716659314 heartbeat IPC: 0.427927 cumulative IPC: 0.252288 (Simulation time: 2 hr 41 min 7 sec) 
Heartbeat CPU 0 instructions: 630000004 cycles: 1739714663 heartbeat IPC: 0.433739 cumulative IPC: 0.254767 (Simulation time: 2 hr 43 min 1 sec) 
Heartbeat CPU 0 instructions: 640000004 cycles: 1761981199 heartbeat IPC: 0.449104 cumulative IPC: 0.257297 (Simulation time: 2 hr 44 min 50 sec) 
Heartbeat CPU 0 instructions: 650000001 cycles: 1784314503 heartbeat IPC: 0.447762 cumulative IPC: 0.259752 (Simulation time: 2 hr 46 min 38 sec) 
Heartbeat CPU 0 instructions: 660000002 cycles: 1805865206 heartbeat IPC: 0.464022 cumulative IPC: 0.262262 (Simulation time: 2 hr 48 min 23 sec) 
Heartbeat CPU 0 instructions: 670000001 cycles: 1827619297 heartbeat IPC: 0.459684 cumulative IPC: 0.264681 (Simulation time: 2 hr 50 min 8 sec) 
Heartbeat CPU 0 instructions: 680000000 cycles: 1849024378 heartbeat IPC: 0.467179 cumulative IPC: 0.267093 (Simulation time: 2 hr 51 min 52 sec) 
Heartbeat CPU 0 instructions: 690000001 cycles: 1870508780 heartbeat IPC: 0.465454 cumulative IPC: 0.269436 (Simulation time: 2 hr 53 min 36 sec) 
Heartbeat CPU 0 instructions: 700000000 cycles: 1892074315 heartbeat IPC: 0.463703 cumulative IPC: 0.271713 (Simulation time: 2 hr 55 min 20 sec) 
Heartbeat CPU 0 instructions: 710000004 cycles: 1913312319 heartbeat IPC: 0.470854 cumulative IPC: 0.273985 (Simulation time: 2 hr 57 min 3 sec) 
Heartbeat CPU 0 instructions: 720000000 cycles: 1934309966 heartbeat IPC: 0.476244 cumulative IPC: 0.276241 (Simulation time: 2 hr 58 min 44 sec) 
Heartbeat CPU 0 instructions: 730000003 cycles: 1955387918 heartbeat IPC: 0.47443 cumulative IPC: 0.278436 (Simulation time: 3 hr 0 min 26 sec) 
Heartbeat CPU 0 instructions: 740000003 cycles: 1976189373 heartbeat IPC: 0.480736 cumulative IPC: 0.280622 (Simulation time: 3 hr 2 min 6 sec) 
Heartbeat CPU 0 instructions: 750000004 cycles: 1997221933 heartbeat IPC: 0.475453 cumulative IPC: 0.282729 (Simulation time: 3 hr 3 min 48 sec) 
Heartbeat CPU 0 instructions: 760000001 cycles: 2018103167 heartbeat IPC: 0.478899 cumulative IPC: 0.284812 (Simulation time: 3 hr 5 min 28 sec) 
Heartbeat CPU 0 instructions: 770000002 cycles: 2039002793 heartbeat IPC: 0.478478 cumulative IPC: 0.286849 (Simulation time: 3 hr 7 min 8 sec) 
Heartbeat CPU 0 instructions: 780000003 cycles: 2059632737 heartbeat IPC: 0.484732 cumulative IPC: 0.288882 (Simulation time: 3 hr 8 min 47 sec) 
Heartbeat CPU 0 instructions: 790000001 cycles: 2080519432 heartbeat IPC: 0.478774 cumulative IPC: 0.290838 (Simulation time: 3 hr 10 min 28 sec) 
Heartbeat CPU 0 instructions: 800000003 cycles: 2101051289 heartbeat IPC: 0.487048 cumulative IPC: 0.292804 (Simulation time: 3 hr 12 min 6 sec) 
Heartbeat CPU 0 instructions: 810000002 cycles: 2121963642 heartbeat IPC: 0.478186 cumulative IPC: 0.294676 (Simulation time: 3 hr 13 min 47 sec) 
Heartbeat CPU 0 instructions: 820000003 cycles: 2142832917 heartbeat IPC: 0.479173 cumulative IPC: 0.296518 (Simulation time: 3 hr 15 min 28 sec) 
Heartbeat CPU 0 instructions: 830000002 cycles: 2163294485 heartbeat IPC: 0.488721 cumulative IPC: 0.29838 (Simulation time: 3 hr 17 min 7 sec) 
Heartbeat CPU 0 instructions: 840000001 cycles: 2184194945 heartbeat IPC: 0.478458 cumulative IPC: 0.300146 (Simulation time: 3 hr 18 min 47 sec) 
Heartbeat CPU 0 instructions: 850000000 cycles: 2204776740 heartbeat IPC: 0.485866 cumulative IPC: 0.301921 (Simulation time: 3 hr 20 min 26 sec) 
Heartbeat CPU 0 instructions: 860000004 cycles: 2225697332 heartbeat IPC: 0.477998 cumulative IPC: 0.303616 (Simulation time: 3 hr 22 min 7 sec) 
Heartbeat CPU 0 instructions: 870000001 cycles: 2246171434 heartbeat IPC: 0.488422 cumulative IPC: 0.30534 (Simulation time: 3 hr 23 min 45 sec) 
Heartbeat CPU 0 instructions: 880000004 cycles: 2267028575 heartbeat IPC: 0.479452 cumulative IPC: 0.306979 (Simulation time: 3 hr 25 min 25 sec) 
Heartbeat CPU 0 instructions: 890000001 cycles: 2287558277 heartbeat IPC: 0.487099 cumulative IPC: 0.308633 (Simulation time: 3 hr 27 min 4 sec) 
Heartbeat CPU 0 instructions: 900000002 cycles: 2308530214 heartbeat IPC: 0.476828 cumulative IPC: 0.310196 (Simulation time: 3 hr 28 min 45 sec) 
Heartbeat CPU 0 instructions: 910000004 cycles: 2329126759 heartbeat IPC: 0.485518 cumulative IPC: 0.311782 (Simulation time: 3 hr 30 min 23 sec) 
Heartbeat CPU 0 instructions: 920000003 cycles: 2350081571 heartbeat IPC: 0.477217 cumulative IPC: 0.313291 (Simulation time: 3 hr 32 min 4 sec) 
Heartbeat CPU 0 instructions: 930000000 cycles: 2370718867 heartbeat IPC: 0.484559 cumulative IPC: 0.314815 (Simulation time: 3 hr 33 min 43 sec) 
Heartbeat CPU 0 instructions: 940000002 cycles: 2392465065 heartbeat IPC: 0.459851 cumulative IPC: 0.316162 (Simulation time: 3 hr 35 min 24 sec) 
Heartbeat CPU 0 instructions: 950000000 cycles: 2455051269 heartbeat IPC: 0.15978 cumulative IPC: 0.31209 (Simulation time: 3 hr 41 min 47 sec) 
Heartbeat CPU 0 instructions: 960000001 cycles: 2504288301 heartbeat IPC: 0.203099 cumulative IPC: 0.309901 (Simulation time: 3 hr 46 min 43 sec) 
Heartbeat CPU 0 instructions: 970000002 cycles: 2525955360 heartbeat IPC: 0.46153 cumulative IPC: 0.311229 (Simulation time: 3 hr 48 min 25 sec) 
Heartbeat CPU 0 instructions: 980000004 cycles: 2546526259 heartbeat IPC: 0.486124 cumulative IPC: 0.312672 (Simulation time: 3 hr 50 min 4 sec) 
Heartbeat CPU 0 instructions: 990000000 cycles: 2567409990 heartbeat IPC: 0.478841 cumulative IPC: 0.314051 (Simulation time: 3 hr 51 min 45 sec) 
Heartbeat CPU 0 instructions: 1000000001 cycles: 2587923652 heartbeat IPC: 0.48748 cumulative IPC: 0.315454 (Simulation time: 3 hr 53 min 24 sec) 
Heartbeat CPU 0 instructions: 1010000003 cycles: 2608766896 heartbeat IPC: 0.479772 cumulative IPC: 0.316793 (Simulation time: 3 hr 55 min 4 sec) 
Heartbeat CPU 0 instructions: 1020000002 cycles: 2629347462 heartbeat IPC: 0.485895 cumulative IPC: 0.318144 (Simulation time: 3 hr 56 min 43 sec) 
Heartbeat CPU 0 instructions: 1030000001 cycles: 2650286785 heartbeat IPC: 0.47757 cumulative IPC: 0.319428 (Simulation time: 3 hr 58 min 24 sec) 
Heartbeat CPU 0 instructions: 1040000003 cycles: 2670754735 heartbeat IPC: 0.488569 cumulative IPC: 0.32075 (Simulation time: 4 hr 0 min 3 sec) 
Heartbeat CPU 0 instructions: 1050000000 cycles: 2691599146 heartbeat IPC: 0.479745 cumulative IPC: 0.322006 (Simulation time: 4 hr 1 min 43 sec) 
Heartbeat CPU 0 instructions: 1060000000 cycles: 2712129834 heartbeat IPC: 0.487076 cumulative IPC: 0.32328 (Simulation time: 4 hr 3 min 22 sec) 
Heartbeat CPU 0 instructions: 1070000004 cycles: 2733001171 heartbeat IPC: 0.479126 cumulative IPC: 0.324493 (Simulation time: 4 hr 5 min 3 sec) 
Heartbeat CPU 0 instructions: 1080000000 cycles: 2753536621 heartbeat IPC: 0.486963 cumulative IPC: 0.325728 (Simulation time: 4 hr 6 min 41 sec) 
Heartbeat CPU 0 instructions: 1090000000 cycles: 2774396215 heartbeat IPC: 0.479396 cumulative IPC: 0.326905 (Simulation time: 4 hr 8 min 22 sec) 
Heartbeat CPU 0 instructions: 1100000001 cycles: 2795322988 heartbeat IPC: 0.477857 cumulative IPC: 0.328057 (Simulation time: 4 hr 10 min 3 sec) 
Heartbeat CPU 0 instructions: 1110000003 cycles: 2815850481 heartbeat IPC: 0.487152 cumulative IPC: 0.329238 (Simulation time: 4 hr 11 min 41 sec) 
Heartbeat CPU 0 instructions: 1120000003 cycles: 2837358986 heartbeat IPC: 0.464932 cumulative IPC: 0.330286 (Simulation time: 4 hr 13 min 25 sec) 
Heartbeat CPU 0 instructions: 1130000003 cycles: 2860182360 heartbeat IPC: 0.438147 cumulative IPC: 0.331163 (Simulation time: 4 hr 15 min 14 sec) 
Heartbeat CPU 0 instructions: 1140000004 cycles: 2886242463 heartbeat IPC: 0.383728 cumulative IPC: 0.331646 (Simulation time: 4 hr 17 min 22 sec) 
Heartbeat CPU 0 instructions: 1150000000 cycles: 2915193785 heartbeat IPC: 0.345407 cumulative IPC: 0.331785 (Simulation time: 4 hr 19 min 47 sec) 
Heartbeat CPU 0 instructions: 1160000003 cycles: 2949019556 heartbeat IPC: 0.295633 cumulative IPC: 0.331363 (Simulation time: 4 hr 22 min 41 sec) 
Heartbeat CPU 0 instructions: 1170000001 cycles: 2990874066 heartbeat IPC: 0.238923 cumulative IPC: 0.330047 (Simulation time: 4 hr 26 min 23 sec) 
Heartbeat CPU 0 instructions: 1180000003 cycles: 3043619951 heartbeat IPC: 0.189588 cumulative IPC: 0.32757 (Simulation time: 4 hr 31 min 11 sec) 
Heartbeat CPU 0 instructions: 1190000003 cycles: 3099688072 heartbeat IPC: 0.178354 cumulative IPC: 0.324825 (Simulation time: 4 hr 36 min 22 sec) 
Heartbeat CPU 0 instructions: 1200000001 cycles: 3162122584 heartbeat IPC: 0.160168 cumulative IPC: 0.32152 (Simulation time: 4 hr 42 min 11 sec) 
Finished CPU 0 instructions: 1000000003 cycles: 3110226667 cumulative IPC: 0.32152 (Simulation time: 4 hr 42 min 11 sec) 

ChampSim completed all CPUs

Region of Interest Statistics

CPU 0 cumulative IPC: 0.32152 instructions: 1000000003 cycles: 3110226667
cpu0_DTLB TOTAL     ACCESS:  157139885  HIT:  156205102  MISS:     934783
cpu0_DTLB LOAD      ACCESS:   76506927  HIT:   76379924  MISS:     127003
cpu0_DTLB RFO       ACCESS:   80632958  HIT:   79825178  MISS:     807780
cpu0_DTLB PREFETCH  ACCESS:          0  HIT:          0  MISS:          0
cpu0_DTLB WRITEBACK ACCESS:          0  HIT:          0  MISS:          0
cpu0_DTLB TRANSLATION ACCESS:          0  HIT:          0  MISS:          0
cpu0_DTLB PREFETCH  REQUESTED:          0  ISSUED:          0  USEFUL:          0  USELESS:          0
cpu0_DTLB AVERAGE MISS LATENCY: 267.399 cycles
cpu0_ITLB TOTAL     ACCESS:   10573611  HIT:   10573610  MISS:          1
cpu0_ITLB LOAD      ACCESS:   10573611  HIT:   10573610  MISS:          1
cpu0_ITLB RFO       ACCESS:          0  HIT:          0  MISS:          0
cpu0_ITLB PREFETCH  ACCESS:          0  HIT:          0  MISS:          0
cpu0_ITLB WRITEBACK ACCESS:          0  HIT:          0  MISS:          0
cpu0_ITLB TRANSLATION ACCESS:          0  HIT:          0  MISS:          0
cpu0_ITLB PREFETCH  REQUESTED:          0  ISSUED:          0  USEFUL:          0  USELESS:          0
cpu0_ITLB AVERAGE MISS LATENCY: 1779 cycles
cpu0_L1I TOTAL     ACCESS:   20224064  HIT:   20224061  MISS:          3
cpu0_L1I LOAD      ACCESS:   20224064  HIT:   20224061  MISS:          3
cpu0_L1I RFO       ACCESS:          0  HIT:          0  MISS:          0
cpu0_L1I PREFETCH  ACCESS:          0  HIT:          0  MISS:          0
cpu0_L1I WRITEBACK ACCESS:          0  HIT:          0  MISS:          0
cpu0_L1I TRANSLATION ACCESS:          0  HIT:          0  MISS:          0
cpu0_L1I PREFETCH  REQUESTED:          0  ISSUED:          0  USEFUL:          0  USELESS:          0
cpu0_L1I AVERAGE MISS LATENCY: 754 cycles
cpu0_STLB TOTAL     ACCESS:     934784  HIT:     677799  MISS:     256985
cpu0_STLB LOAD      ACCESS:     127004  HIT:         80  MISS:     126924
cpu0_STLB RFO       ACCESS:     807780  HIT:     677719  MISS:     130061
cpu0_STLB PREFETCH  ACCESS:          0  HIT:          0  MISS:          0
cpu0_STLB WRITEBACK ACCESS:          0  HIT:          0  MISS:          0
cpu0_STLB TRANSLATION ACCESS:          0  HIT:          0  MISS:          0
cpu0_STLB PREFETCH  REQUESTED:          0  ISSUED:          0  USEFUL:          0  USELESS:          0
cpu0_STLB AVERAGE MISS LATENCY: 932.333 cycles
cpu0_L1D TOTAL     ACCESS:  210203332  HIT:  156590202  MISS:   53613130
cpu0_L1D LOAD      ACCESS:   54314259  HIT:   46190499  MISS:    8123760
cpu0_L1D RFO       ACCESS:  155632744  HIT:  110143443  MISS:   45489301
cpu0_L1D PREFETCH  ACCESS:          0  HIT:          0  MISS:          0
cpu0_L1D WRITEBACK ACCESS:          0  HIT:          0  MISS:          0
cpu0_L1D TRANSLATION ACCESS:     256329  HIT:     256260  MISS:         69
cpu0_L1D PREFETCH  REQUESTED:          0  ISSUED:          0  USEFUL:          0  USELESS:          0
cpu0_L1D AVERAGE MISS LATENCY: 892.341 cycles
cpu0_L2C TOTAL     ACCESS:  106677300  HIT:   73413890  MISS:   33263410
cpu0_L2C LOAD      ACCESS:    8123763  HIT:    7048006  MISS:    1075757
cpu0_L2C RFO       ACCESS:   45489294  HIT:   20352281  MISS:   25137013
cpu0_L2C PREFETCH  ACCESS:    7574867  HIT:     525392  MISS:    7049475
cpu0_L2C WRITEBACK ACCESS:   45489307  HIT:   45488211  MISS:       1096
cpu0_L2C TRANSLATION ACCESS:         69  HIT:          0  MISS:         69
cpu0_L2C PREFETCH  REQUESTED:   24347888  ISSUED:   17866045  USEFUL:    7879735  USELESS:       1365
cpu0_L2C AVERAGE MISS LATENCY: 1639.02 cycles
LLC TOTAL     ACCESS:   59629277  HIT:   27133165  MISS:   32496112
LLC LOAD      ACCESS:     244129  HIT:        774  MISS:     243355
LLC RFO       ACCESS:   25135133  HIT:     765152  MISS:   24369981
LLC PREFETCH  ACCESS:    9111847  HIT:    1230031  MISS:    7881816
LLC WRITEBACK ACCESS:   25138099  HIT:   25137208  MISS:        891
LLC TRANSLATION ACCESS:         69  HIT:          0  MISS:         69
LLC PREFETCH  REQUESTED:          0  ISSUED:          0  USEFUL:          0  USELESS:          0
LLC AVERAGE MISS LATENCY: 1886.58 cycles
Printing the final status 

DRAM Statistics
 CHANNEL 0
 RQ ROW_BUFFER_HIT:     969111  ROW_BUFFER_MISS:   31526110
 DBUS AVG_CONGESTED_CYCLE:    4.00458
 WQ ROW_BUFFER_HIT:     490657  ROW_BUFFER_MISS:   23880309  FULL:          0


CPU 0 Branch Prediction Accuracy: 97.8067% MPKI: 0.30673 Average ROB Occupancy at Mispredict: 258.229
Branch type MPKI
BRANCH_DIRECT_JUMP: 3e-06
BRANCH_INDIRECT: 0
BRANCH_CONDITIONAL: 0.306723
BRANCH_DIRECT_CALL: 2e-06
BRANCH_INDIRECT_CALL: 0
BRANCH_RETURN: 2e-06

***************** Done with 619.lbm_s-4268B.champsimtrace.xz using ppf-spp-dev-3, on Wed Apr 20 19:15:31 CDT 2022 ******************
