Started running file 600.perlbench_s-210B.champsimtrace.xz at time Sun Apr 17 17:04:58 CDT 2022 with prefetcher spp-dev-agg

*** ChampSim Multicore Out-of-Order Simulator ***

Warmup Instructions: 200000000
Simulation Instructions: 1000000000
Number of CPUs: 1
Off-chip DRAM Size: 4 GiB Channels: 1 Width: 64-bit Data Rate: 3200 MT/s

VirtualMemory physical capacity: 8588881920 num_ppages: 2096895
VirtualMemory page size: 4096 log2_page_size: 12

CPU 0 runs /home/faculty/p/pgratz/dpc3_traces/600.perlbench_s-210B.champsimtrace.xz
CPU 0 Bimodal branch predictor
Basic BTB sets: 1024 ways: 8 indirect buffer size: 4096 RAS size: 64
SPP-DEV original prefetcher
Heartbeat CPU 0 instructions: 10000003 cycles: 2511539 heartbeat IPC: 3.98162 cumulative IPC: 3.98162 (Simulation time: 0 hr 0 min 31 sec) 
Heartbeat CPU 0 instructions: 20000003 cycles: 5011539 heartbeat IPC: 4 cumulative IPC: 3.99079 (Simulation time: 0 hr 1 min 4 sec) 
Heartbeat CPU 0 instructions: 30000003 cycles: 7511539 heartbeat IPC: 4 cumulative IPC: 3.99386 (Simulation time: 0 hr 1 min 37 sec) 
Heartbeat CPU 0 instructions: 40000002 cycles: 10012001 heartbeat IPC: 3.99926 cumulative IPC: 3.99521 (Simulation time: 0 hr 2 min 9 sec) 
Heartbeat CPU 0 instructions: 50000003 cycles: 12512587 heartbeat IPC: 3.99906 cumulative IPC: 3.99598 (Simulation time: 0 hr 2 min 42 sec) 
Heartbeat CPU 0 instructions: 60000000 cycles: 15013116 heartbeat IPC: 3.99915 cumulative IPC: 3.99651 (Simulation time: 0 hr 3 min 15 sec) 
Heartbeat CPU 0 instructions: 70000000 cycles: 17513116 heartbeat IPC: 4 cumulative IPC: 3.997 (Simulation time: 0 hr 3 min 49 sec) 
Heartbeat CPU 0 instructions: 80000000 cycles: 20013116 heartbeat IPC: 4 cumulative IPC: 3.99738 (Simulation time: 0 hr 4 min 22 sec) 
Heartbeat CPU 0 instructions: 90000000 cycles: 22521354 heartbeat IPC: 3.98686 cumulative IPC: 3.99621 (Simulation time: 0 hr 4 min 53 sec) 
Heartbeat CPU 0 instructions: 100000000 cycles: 25022569 heartbeat IPC: 3.99806 cumulative IPC: 3.99639 (Simulation time: 0 hr 5 min 26 sec) 
Heartbeat CPU 0 instructions: 110000000 cycles: 27522569 heartbeat IPC: 4 cumulative IPC: 3.99672 (Simulation time: 0 hr 5 min 59 sec) 
Heartbeat CPU 0 instructions: 120000000 cycles: 30022569 heartbeat IPC: 4 cumulative IPC: 3.99699 (Simulation time: 0 hr 6 min 34 sec) 
Heartbeat CPU 0 instructions: 130000002 cycles: 32523258 heartbeat IPC: 3.9989 cumulative IPC: 3.99714 (Simulation time: 0 hr 7 min 6 sec) 
Heartbeat CPU 0 instructions: 140000001 cycles: 35023528 heartbeat IPC: 3.99957 cumulative IPC: 3.99731 (Simulation time: 0 hr 7 min 38 sec) 
Heartbeat CPU 0 instructions: 150000002 cycles: 37523862 heartbeat IPC: 3.99947 cumulative IPC: 3.99746 (Simulation time: 0 hr 8 min 11 sec) 
Heartbeat CPU 0 instructions: 160000002 cycles: 40023862 heartbeat IPC: 4 cumulative IPC: 3.99762 (Simulation time: 0 hr 8 min 44 sec) 
Heartbeat CPU 0 instructions: 170000003 cycles: 42525237 heartbeat IPC: 3.9978 cumulative IPC: 3.99763 (Simulation time: 0 hr 9 min 17 sec) 
Heartbeat CPU 0 instructions: 180000003 cycles: 45025237 heartbeat IPC: 4 cumulative IPC: 3.99776 (Simulation time: 0 hr 9 min 50 sec) 
Heartbeat CPU 0 instructions: 190000003 cycles: 47525237 heartbeat IPC: 4 cumulative IPC: 3.99788 (Simulation time: 0 hr 10 min 23 sec) 
Heartbeat CPU 0 instructions: 200000003 cycles: 50026093 heartbeat IPC: 3.99863 cumulative IPC: 3.99791 (Simulation time: 0 hr 10 min 55 sec) 

Warmup complete CPU 0 instructions: 200000003 cycles: 50026093 (Simulation time: 0 hr 10 min 55 sec) 

Heartbeat CPU 0 instructions: 210000003 cycles: 55342516 heartbeat IPC: 1.88096 cumulative IPC: 1.88096 (Simulation time: 0 hr 11 min 37 sec) 
Heartbeat CPU 0 instructions: 220000003 cycles: 60708892 heartbeat IPC: 1.86345 cumulative IPC: 1.87217 (Simulation time: 0 hr 12 min 19 sec) 
Heartbeat CPU 0 instructions: 230000003 cycles: 66024244 heartbeat IPC: 1.88134 cumulative IPC: 1.87522 (Simulation time: 0 hr 13 min 2 sec) 
Heartbeat CPU 0 instructions: 240000004 cycles: 71249725 heartbeat IPC: 1.9137 cumulative IPC: 1.88469 (Simulation time: 0 hr 13 min 45 sec) 
Heartbeat CPU 0 instructions: 250000004 cycles: 76182328 heartbeat IPC: 2.02733 cumulative IPC: 1.91159 (Simulation time: 0 hr 14 min 23 sec) 
Heartbeat CPU 0 instructions: 260000001 cycles: 81343678 heartbeat IPC: 1.93748 cumulative IPC: 1.91586 (Simulation time: 0 hr 15 min 5 sec) 
Heartbeat CPU 0 instructions: 270000002 cycles: 86636940 heartbeat IPC: 1.88919 cumulative IPC: 1.912 (Simulation time: 0 hr 15 min 46 sec) 
Heartbeat CPU 0 instructions: 280000003 cycles: 92084904 heartbeat IPC: 1.83555 cumulative IPC: 1.9021 (Simulation time: 0 hr 16 min 25 sec) 
Heartbeat CPU 0 instructions: 290000000 cycles: 97301421 heartbeat IPC: 1.91699 cumulative IPC: 1.90374 (Simulation time: 0 hr 17 min 7 sec) 
Heartbeat CPU 0 instructions: 300000003 cycles: 102813561 heartbeat IPC: 1.81418 cumulative IPC: 1.89439 (Simulation time: 0 hr 17 min 50 sec) 
Heartbeat CPU 0 instructions: 310000002 cycles: 108153244 heartbeat IPC: 1.87277 cumulative IPC: 1.8924 (Simulation time: 0 hr 18 min 32 sec) 
Heartbeat CPU 0 instructions: 320000001 cycles: 113341712 heartbeat IPC: 1.92735 cumulative IPC: 1.89527 (Simulation time: 0 hr 19 min 12 sec) 
Heartbeat CPU 0 instructions: 330000004 cycles: 118518573 heartbeat IPC: 1.93167 cumulative IPC: 1.89802 (Simulation time: 0 hr 19 min 51 sec) 
Heartbeat CPU 0 instructions: 340000002 cycles: 123894541 heartbeat IPC: 1.86013 cumulative IPC: 1.89526 (Simulation time: 0 hr 20 min 30 sec) 
Heartbeat CPU 0 instructions: 350000003 cycles: 129382021 heartbeat IPC: 1.82233 cumulative IPC: 1.89022 (Simulation time: 0 hr 21 min 9 sec) 
Heartbeat CPU 0 instructions: 360000002 cycles: 134624775 heartbeat IPC: 1.90739 cumulative IPC: 1.89128 (Simulation time: 0 hr 21 min 52 sec) 
Heartbeat CPU 0 instructions: 370000001 cycles: 140052930 heartbeat IPC: 1.84225 cumulative IPC: 1.88833 (Simulation time: 0 hr 22 min 31 sec) 
Heartbeat CPU 0 instructions: 380000003 cycles: 145455194 heartbeat IPC: 1.85108 cumulative IPC: 1.88622 (Simulation time: 0 hr 23 min 12 sec) 
Heartbeat CPU 0 instructions: 390000000 cycles: 150785909 heartbeat IPC: 1.87592 cumulative IPC: 1.88567 (Simulation time: 0 hr 23 min 54 sec) 
Heartbeat CPU 0 instructions: 400000001 cycles: 155964422 heartbeat IPC: 1.93106 cumulative IPC: 1.88789 (Simulation time: 0 hr 24 min 36 sec) 
Heartbeat CPU 0 instructions: 410000000 cycles: 160913816 heartbeat IPC: 2.02045 cumulative IPC: 1.89381 (Simulation time: 0 hr 25 min 15 sec) 
Heartbeat CPU 0 instructions: 420000001 cycles: 166119496 heartbeat IPC: 1.92098 cumulative IPC: 1.89503 (Simulation time: 0 hr 25 min 55 sec) 
Heartbeat CPU 0 instructions: 430000000 cycles: 171796650 heartbeat IPC: 1.76145 cumulative IPC: 1.8888 (Simulation time: 0 hr 26 min 32 sec) 
Heartbeat CPU 0 instructions: 440000000 cycles: 177178817 heartbeat IPC: 1.85799 cumulative IPC: 1.88749 (Simulation time: 0 hr 27 min 13 sec) 
Heartbeat CPU 0 instructions: 450000001 cycles: 182567549 heartbeat IPC: 1.85572 cumulative IPC: 1.8862 (Simulation time: 0 hr 27 min 52 sec) 
Heartbeat CPU 0 instructions: 460000000 cycles: 188021689 heartbeat IPC: 1.83347 cumulative IPC: 1.88412 (Simulation time: 0 hr 28 min 33 sec) 
Heartbeat CPU 0 instructions: 470000001 cycles: 196369922 heartbeat IPC: 1.19786 cumulative IPC: 1.84497 (Simulation time: 0 hr 29 min 16 sec) 
Heartbeat CPU 0 instructions: 480000002 cycles: 204283637 heartbeat IPC: 1.26363 cumulative IPC: 1.81515 (Simulation time: 0 hr 29 min 55 sec) 
Heartbeat CPU 0 instructions: 490000001 cycles: 210331042 heartbeat IPC: 1.6536 cumulative IPC: 1.80905 (Simulation time: 0 hr 30 min 33 sec) 
Heartbeat CPU 0 instructions: 500000003 cycles: 216830752 heartbeat IPC: 1.53853 cumulative IPC: 1.79851 (Simulation time: 0 hr 31 min 11 sec) 
Heartbeat CPU 0 instructions: 510000001 cycles: 226154353 heartbeat IPC: 1.07255 cumulative IPC: 1.76008 (Simulation time: 0 hr 31 min 49 sec) 
Heartbeat CPU 0 instructions: 520000000 cycles: 239781947 heartbeat IPC: 0.733805 cumulative IPC: 1.68638 (Simulation time: 0 hr 32 min 34 sec) 
Heartbeat CPU 0 instructions: 530000003 cycles: 252704467 heartbeat IPC: 0.773843 cumulative IPC: 1.6282 (Simulation time: 0 hr 33 min 16 sec) 
Heartbeat CPU 0 instructions: 540000001 cycles: 263441923 heartbeat IPC: 0.931319 cumulative IPC: 1.59313 (Simulation time: 0 hr 33 min 58 sec) 
Heartbeat CPU 0 instructions: 550000002 cycles: 276492954 heartbeat IPC: 0.766223 cumulative IPC: 1.54548 (Simulation time: 0 hr 34 min 43 sec) 
Heartbeat CPU 0 instructions: 560000000 cycles: 282531313 heartbeat IPC: 1.65608 cumulative IPC: 1.54835 (Simulation time: 0 hr 35 min 24 sec) 
Heartbeat CPU 0 instructions: 570000000 cycles: 288389812 heartbeat IPC: 1.70692 cumulative IPC: 1.55225 (Simulation time: 0 hr 36 min 4 sec) 
Heartbeat CPU 0 instructions: 580000000 cycles: 294425919 heartbeat IPC: 1.6567 cumulative IPC: 1.55483 (Simulation time: 0 hr 36 min 46 sec) 
Heartbeat CPU 0 instructions: 590000001 cycles: 300438394 heartbeat IPC: 1.66321 cumulative IPC: 1.55743 (Simulation time: 0 hr 37 min 27 sec) 
Heartbeat CPU 0 instructions: 600000000 cycles: 310310770 heartbeat IPC: 1.01293 cumulative IPC: 1.53678 (Simulation time: 0 hr 38 min 11 sec) 
Heartbeat CPU 0 instructions: 610000000 cycles: 322509377 heartbeat IPC: 0.819766 cumulative IPC: 1.50468 (Simulation time: 0 hr 38 min 55 sec) 
Heartbeat CPU 0 instructions: 620000001 cycles: 335156706 heartbeat IPC: 0.790681 cumulative IPC: 1.47301 (Simulation time: 0 hr 39 min 39 sec) 
Heartbeat CPU 0 instructions: 630000002 cycles: 344377144 heartbeat IPC: 1.08455 cumulative IPC: 1.46084 (Simulation time: 0 hr 40 min 24 sec) 
Heartbeat CPU 0 instructions: 640000000 cycles: 354376785 heartbeat IPC: 1.00004 cumulative IPC: 1.4457 (Simulation time: 0 hr 41 min 9 sec) 
Heartbeat CPU 0 instructions: 650000000 cycles: 367029808 heartbeat IPC: 0.790325 cumulative IPC: 1.41954 (Simulation time: 0 hr 41 min 54 sec) 
Heartbeat CPU 0 instructions: 660000000 cycles: 379098920 heartbeat IPC: 0.828561 cumulative IPC: 1.39787 (Simulation time: 0 hr 42 min 38 sec) 
Heartbeat CPU 0 instructions: 670000003 cycles: 386768682 heartbeat IPC: 1.30382 cumulative IPC: 1.39572 (Simulation time: 0 hr 43 min 22 sec) 
Heartbeat CPU 0 instructions: 680000000 cycles: 400532559 heartbeat IPC: 0.726539 cumulative IPC: 1.36945 (Simulation time: 0 hr 44 min 9 sec) 
Heartbeat CPU 0 instructions: 690000001 cycles: 413033203 heartbeat IPC: 0.799959 cumulative IPC: 1.34984 (Simulation time: 0 hr 44 min 54 sec) 
Heartbeat CPU 0 instructions: 700000000 cycles: 418085483 heartbeat IPC: 1.9793 cumulative IPC: 1.35848 (Simulation time: 0 hr 45 min 37 sec) 
Heartbeat CPU 0 instructions: 710000003 cycles: 423453591 heartbeat IPC: 1.86285 cumulative IPC: 1.36573 (Simulation time: 0 hr 46 min 16 sec) 
Heartbeat CPU 0 instructions: 720000003 cycles: 428873380 heartbeat IPC: 1.84509 cumulative IPC: 1.37258 (Simulation time: 0 hr 46 min 54 sec) 
Heartbeat CPU 0 instructions: 730000001 cycles: 434097332 heartbeat IPC: 1.91426 cumulative IPC: 1.37995 (Simulation time: 0 hr 47 min 33 sec) 
Heartbeat CPU 0 instructions: 740000002 cycles: 439214954 heartbeat IPC: 1.95403 cumulative IPC: 1.3875 (Simulation time: 0 hr 48 min 13 sec) 
Heartbeat CPU 0 instructions: 750000001 cycles: 444306496 heartbeat IPC: 1.96404 cumulative IPC: 1.39495 (Simulation time: 0 hr 48 min 56 sec) 
Heartbeat CPU 0 instructions: 760000001 cycles: 449477199 heartbeat IPC: 1.93397 cumulative IPC: 1.40192 (Simulation time: 0 hr 49 min 37 sec) 
Heartbeat CPU 0 instructions: 770000002 cycles: 454623503 heartbeat IPC: 1.94314 cumulative IPC: 1.40881 (Simulation time: 0 hr 50 min 19 sec) 
Heartbeat CPU 0 instructions: 780000002 cycles: 460026379 heartbeat IPC: 1.85087 cumulative IPC: 1.41463 (Simulation time: 0 hr 50 min 58 sec) 
Heartbeat CPU 0 instructions: 790000000 cycles: 465168991 heartbeat IPC: 1.94454 cumulative IPC: 1.4212 (Simulation time: 0 hr 51 min 39 sec) 
Heartbeat CPU 0 instructions: 800000004 cycles: 470511138 heartbeat IPC: 1.87191 cumulative IPC: 1.42692 (Simulation time: 0 hr 52 min 19 sec) 
Heartbeat CPU 0 instructions: 810000001 cycles: 475498511 heartbeat IPC: 2.00506 cumulative IPC: 1.4337 (Simulation time: 0 hr 53 min 1 sec) 
Heartbeat CPU 0 instructions: 820000002 cycles: 480409988 heartbeat IPC: 2.03605 cumulative IPC: 1.44057 (Simulation time: 0 hr 53 min 37 sec) 
Heartbeat CPU 0 instructions: 830000004 cycles: 485304680 heartbeat IPC: 2.04303 cumulative IPC: 1.44735 (Simulation time: 0 hr 54 min 12 sec) 
Heartbeat CPU 0 instructions: 840000003 cycles: 490334179 heartbeat IPC: 1.98827 cumulative IPC: 1.45353 (Simulation time: 0 hr 54 min 51 sec) 
Heartbeat CPU 0 instructions: 850000002 cycles: 495628781 heartbeat IPC: 1.88872 cumulative IPC: 1.4587 (Simulation time: 0 hr 55 min 31 sec) 
Heartbeat CPU 0 instructions: 860000000 cycles: 500976449 heartbeat IPC: 1.86997 cumulative IPC: 1.46358 (Simulation time: 0 hr 56 min 11 sec) 
Heartbeat CPU 0 instructions: 870000004 cycles: 506407247 heartbeat IPC: 1.84135 cumulative IPC: 1.46807 (Simulation time: 0 hr 56 min 51 sec) 
Heartbeat CPU 0 instructions: 880000001 cycles: 511598108 heartbeat IPC: 1.92646 cumulative IPC: 1.47323 (Simulation time: 0 hr 57 min 32 sec) 
Heartbeat CPU 0 instructions: 890000001 cycles: 516856300 heartbeat IPC: 1.90179 cumulative IPC: 1.47805 (Simulation time: 0 hr 58 min 14 sec) 
Heartbeat CPU 0 instructions: 900000001 cycles: 521926557 heartbeat IPC: 1.97229 cumulative IPC: 1.48336 (Simulation time: 0 hr 58 min 55 sec) 
Heartbeat CPU 0 instructions: 910000002 cycles: 527273470 heartbeat IPC: 1.87024 cumulative IPC: 1.4877 (Simulation time: 0 hr 59 min 33 sec) 
Heartbeat CPU 0 instructions: 920000001 cycles: 532713079 heartbeat IPC: 1.83837 cumulative IPC: 1.49165 (Simulation time: 1 hr 0 min 12 sec) 
Heartbeat CPU 0 instructions: 930000002 cycles: 537869817 heartbeat IPC: 1.93921 cumulative IPC: 1.49638 (Simulation time: 1 hr 0 min 51 sec) 
Heartbeat CPU 0 instructions: 940000002 cycles: 543416303 heartbeat IPC: 1.80294 cumulative IPC: 1.49983 (Simulation time: 1 hr 1 min 29 sec) 
Heartbeat CPU 0 instructions: 950000003 cycles: 549065319 heartbeat IPC: 1.77022 cumulative IPC: 1.50289 (Simulation time: 1 hr 2 min 11 sec) 
Heartbeat CPU 0 instructions: 960000000 cycles: 554053103 heartbeat IPC: 2.0049 cumulative IPC: 1.50786 (Simulation time: 1 hr 2 min 54 sec) 
Heartbeat CPU 0 instructions: 970000000 cycles: 559090801 heartbeat IPC: 1.98503 cumulative IPC: 1.51258 (Simulation time: 1 hr 3 min 36 sec) 
Heartbeat CPU 0 instructions: 980000000 cycles: 564499952 heartbeat IPC: 1.84872 cumulative IPC: 1.51611 (Simulation time: 1 hr 4 min 16 sec) 
Heartbeat CPU 0 instructions: 990000004 cycles: 569552084 heartbeat IPC: 1.97936 cumulative IPC: 1.52062 (Simulation time: 1 hr 4 min 59 sec) 
Heartbeat CPU 0 instructions: 1000000000 cycles: 574628226 heartbeat IPC: 1.97 cumulative IPC: 1.52497 (Simulation time: 1 hr 5 min 41 sec) 
Heartbeat CPU 0 instructions: 1010000002 cycles: 579399233 heartbeat IPC: 2.09599 cumulative IPC: 1.53011 (Simulation time: 1 hr 6 min 19 sec) 
Heartbeat CPU 0 instructions: 1020000004 cycles: 584300232 heartbeat IPC: 2.0404 cumulative IPC: 1.53479 (Simulation time: 1 hr 7 min 2 sec) 
Heartbeat CPU 0 instructions: 1030000000 cycles: 589661557 heartbeat IPC: 1.86521 cumulative IPC: 1.53808 (Simulation time: 1 hr 7 min 41 sec) 
Heartbeat CPU 0 instructions: 1040000001 cycles: 594878580 heartbeat IPC: 1.9168 cumulative IPC: 1.5417 (Simulation time: 1 hr 8 min 23 sec) 
Heartbeat CPU 0 instructions: 1050000000 cycles: 599918220 heartbeat IPC: 1.98427 cumulative IPC: 1.54576 (Simulation time: 1 hr 9 min 4 sec) 
Heartbeat CPU 0 instructions: 1060000002 cycles: 605155804 heartbeat IPC: 1.90928 cumulative IPC: 1.54919 (Simulation time: 1 hr 9 min 48 sec) 
Heartbeat CPU 0 instructions: 1070000000 cycles: 610241706 heartbeat IPC: 1.96622 cumulative IPC: 1.55297 (Simulation time: 1 hr 10 min 30 sec) 
Heartbeat CPU 0 instructions: 1080000004 cycles: 615158430 heartbeat IPC: 2.03388 cumulative IPC: 1.55716 (Simulation time: 1 hr 11 min 10 sec) 
Heartbeat CPU 0 instructions: 1090000000 cycles: 620397411 heartbeat IPC: 1.90877 cumulative IPC: 1.56039 (Simulation time: 1 hr 11 min 51 sec) 
Heartbeat CPU 0 instructions: 1100000000 cycles: 625988084 heartbeat IPC: 1.78869 cumulative IPC: 1.5626 (Simulation time: 1 hr 12 min 29 sec) 
Heartbeat CPU 0 instructions: 1110000000 cycles: 630933264 heartbeat IPC: 2.02217 cumulative IPC: 1.56652 (Simulation time: 1 hr 13 min 10 sec) 
Heartbeat CPU 0 instructions: 1120000001 cycles: 636060422 heartbeat IPC: 1.9504 cumulative IPC: 1.56987 (Simulation time: 1 hr 13 min 52 sec) 
Heartbeat CPU 0 instructions: 1130000002 cycles: 641496361 heartbeat IPC: 1.83961 cumulative IPC: 1.57235 (Simulation time: 1 hr 14 min 30 sec) 
Heartbeat CPU 0 instructions: 1140000003 cycles: 646699186 heartbeat IPC: 1.92203 cumulative IPC: 1.5754 (Simulation time: 1 hr 15 min 12 sec) 
Heartbeat CPU 0 instructions: 1150000000 cycles: 651749007 heartbeat IPC: 1.98027 cumulative IPC: 1.5788 (Simulation time: 1 hr 15 min 55 sec) 
Heartbeat CPU 0 instructions: 1160000001 cycles: 656666234 heartbeat IPC: 2.03367 cumulative IPC: 1.58249 (Simulation time: 1 hr 16 min 36 sec) 
Heartbeat CPU 0 instructions: 1170000000 cycles: 661606537 heartbeat IPC: 2.02417 cumulative IPC: 1.58605 (Simulation time: 1 hr 17 min 16 sec) 
Heartbeat CPU 0 instructions: 1180000000 cycles: 667057595 heartbeat IPC: 1.83451 cumulative IPC: 1.58825 (Simulation time: 1 hr 17 min 54 sec) 
Heartbeat CPU 0 instructions: 1190000000 cycles: 672279268 heartbeat IPC: 1.91509 cumulative IPC: 1.59099 (Simulation time: 1 hr 18 min 35 sec) 
Heartbeat CPU 0 instructions: 1200000000 cycles: 677677068 heartbeat IPC: 1.85261 cumulative IPC: 1.59324 (Simulation time: 1 hr 19 min 13 sec) 
Finished CPU 0 instructions: 1000000001 cycles: 627650976 cumulative IPC: 1.59324 (Simulation time: 1 hr 19 min 13 sec) 

ChampSim completed all CPUs

Region of Interest Statistics

CPU 0 cumulative IPC: 1.59324 instructions: 1000000001 cycles: 627650976
cpu0_DTLB TOTAL     ACCESS:  184706965  HIT:  183657758  MISS:    1049207
cpu0_DTLB LOAD      ACCESS:  102721564  HIT:  101770603  MISS:     950961
cpu0_DTLB RFO       ACCESS:   81985401  HIT:   81887155  MISS:      98246
cpu0_DTLB PREFETCH  ACCESS:          0  HIT:          0  MISS:          0
cpu0_DTLB WRITEBACK ACCESS:          0  HIT:          0  MISS:          0
cpu0_DTLB TRANSLATION ACCESS:          0  HIT:          0  MISS:          0
cpu0_DTLB PREFETCH  REQUESTED:          0  ISSUED:          0  USEFUL:          0  USELESS:          0
cpu0_DTLB AVERAGE MISS LATENCY: 11.9801 cycles
cpu0_ITLB TOTAL     ACCESS:   72541635  HIT:   72423204  MISS:     118431
cpu0_ITLB LOAD      ACCESS:   72541635  HIT:   72423204  MISS:     118431
cpu0_ITLB RFO       ACCESS:          0  HIT:          0  MISS:          0
cpu0_ITLB PREFETCH  ACCESS:          0  HIT:          0  MISS:          0
cpu0_ITLB WRITEBACK ACCESS:          0  HIT:          0  MISS:          0
cpu0_ITLB TRANSLATION ACCESS:          0  HIT:          0  MISS:          0
cpu0_ITLB PREFETCH  REQUESTED:          0  ISSUED:          0  USEFUL:          0  USELESS:          0
cpu0_ITLB AVERAGE MISS LATENCY: 11.3324 cycles
cpu0_L1I TOTAL     ACCESS:   56450000  HIT:   54887026  MISS:    1562974
cpu0_L1I LOAD      ACCESS:   56450000  HIT:   54887026  MISS:    1562974
cpu0_L1I RFO       ACCESS:          0  HIT:          0  MISS:          0
cpu0_L1I PREFETCH  ACCESS:          0  HIT:          0  MISS:          0
cpu0_L1I WRITEBACK ACCESS:          0  HIT:          0  MISS:          0
cpu0_L1I TRANSLATION ACCESS:          0  HIT:          0  MISS:          0
cpu0_L1I PREFETCH  REQUESTED:          0  ISSUED:          0  USEFUL:          0  USELESS:          0
cpu0_L1I AVERAGE MISS LATENCY: 13.2381 cycles
cpu0_STLB TOTAL     ACCESS:    1167638  HIT:    1162139  MISS:       5499
cpu0_STLB LOAD      ACCESS:    1069392  HIT:    1064548  MISS:       4844
cpu0_STLB RFO       ACCESS:      98246  HIT:      97591  MISS:        655
cpu0_STLB PREFETCH  ACCESS:          0  HIT:          0  MISS:          0
cpu0_STLB WRITEBACK ACCESS:          0  HIT:          0  MISS:          0
cpu0_STLB TRANSLATION ACCESS:          0  HIT:          0  MISS:          0
cpu0_STLB PREFETCH  REQUESTED:          0  ISSUED:          0  USEFUL:          0  USELESS:          0
cpu0_STLB AVERAGE MISS LATENCY: 190.64 cycles
cpu0_L1D TOTAL     ACCESS:  330394025  HIT:  329333431  MISS:    1060594
cpu0_L1D LOAD      ACCESS:  122667626  HIT:  121688939  MISS:     978687
cpu0_L1D RFO       ACCESS:  207720919  HIT:  207640179  MISS:      80740
cpu0_L1D PREFETCH  ACCESS:          0  HIT:          0  MISS:          0
cpu0_L1D WRITEBACK ACCESS:          0  HIT:          0  MISS:          0
cpu0_L1D TRANSLATION ACCESS:       5480  HIT:       4313  MISS:       1167
cpu0_L1D PREFETCH  REQUESTED:          0  ISSUED:          0  USEFUL:          0  USELESS:          0
cpu0_L1D AVERAGE MISS LATENCY: 52.3419 cycles
cpu0_L2C TOTAL     ACCESS:    4290870  HIT:    3790407  MISS:     500463
cpu0_L2C LOAD      ACCESS:    2541601  HIT:    2152628  MISS:     388973
cpu0_L2C RFO       ACCESS:      80732  HIT:      51716  MISS:      29016
cpu0_L2C PREFETCH  ACCESS:    1405018  HIT:    1324112  MISS:      80906
cpu0_L2C WRITEBACK ACCESS:     262352  HIT:     261050  MISS:       1302
cpu0_L2C TRANSLATION ACCESS:       1167  HIT:        901  MISS:        266
cpu0_L2C PREFETCH  REQUESTED:    1870322  ISSUED:    1838115  USEFUL:      66155  USELESS:      24461
cpu0_L2C AVERAGE MISS LATENCY: 108.383 cycles
LLC TOTAL     ACCESS:     974705  HIT:     520546  MISS:     454159
LLC LOAD      ACCESS:     379255  HIT:     159264  MISS:     219991
LLC RFO       ACCESS:      28981  HIT:       9266  MISS:      19715
LLC PREFETCH  ACCESS:     471253  HIT:     258371  MISS:     212882
LLC WRITEBACK ACCESS:      94950  HIT:      93461  MISS:       1489
LLC TRANSLATION ACCESS:        266  HIT:        184  MISS:         82
LLC PREFETCH  REQUESTED:          0  ISSUED:          0  USEFUL:          0  USELESS:          0
LLC AVERAGE MISS LATENCY: 158.312 cycles

DRAM Statistics
 CHANNEL 0
 RQ ROW_BUFFER_HIT:      50200  ROW_BUFFER_MISS:     402468
 DBUS AVG_CONGESTED_CYCLE:    3.60556
 WQ ROW_BUFFER_HIT:      31223  ROW_BUFFER_MISS:      34312  FULL:          0


CPU 0 Branch Prediction Accuracy: 96.6639% MPKI: 4.95919 Average ROB Occupancy at Mispredict: 104.199
Branch type MPKI
BRANCH_DIRECT_JUMP: 0.001678
BRANCH_INDIRECT: 0.310558
BRANCH_CONDITIONAL: 4.50517
BRANCH_DIRECT_CALL: 0.001795
BRANCH_INDIRECT_CALL: 0.134027
BRANCH_RETURN: 0.005954

***************** Done with 600.perlbench_s-210B.champsimtrace.xz using spp-dev-agg, on Sun Apr 17 18:24:11 CDT 2022 ******************
