Initialize SIGNATURE TABLE
ST_SET: 1
ST_WAY: 256
ST_TAG_BIT: 16
ST_TAG_MASK: ffff

Initialize PATTERN TABLE
PT_SET: 512
PT_WAY: 4
SIG_DELTA_BIT: 7
C_SIG_BIT: 4
C_DELTA_BIT: 4

Initialize PREFETCH FILTER
FILTER_SET: 1024

*** ChampSim Multicore Out-of-Order Simulator ***

Warmup Instructions: 200000000
Simulation Instructions: 1000000000
Number of CPUs: 1
Off-chip DRAM Size: 4 GiB Channels: 1 Width: 64-bit Data Rate: 3200 MT/s

VirtualMemory physical capacity: 8588881920 num_ppages: 2096895
VirtualMemory page size: 4096 log2_page_size: 12

CPU 0 runs /home/faculty/p/pgratz/dpc3_traces/641.leela_s-800B.champsimtrace.xz
CPU 0 Bimodal branch predictor
Basic BTB sets: 1024 ways: 8 indirect buffer size: 4096 RAS size: 64
WARNING: The extended signature CACHE::prefetch_line(ip, base_addr, pf_addr, fill_this_level, prefetch_metadata) is deprecated.
WARNING: Use CACHE::prefetch_line(pf_addr, fill_this_level, prefetch_metadata) instead.
Heartbeat CPU 0 instructions: 10000002 cycles: 2508752 heartbeat IPC: 3.98605 cumulative IPC: 3.98605 (Simulation time: 0 hr 0 min 32 sec) 
Heartbeat CPU 0 instructions: 20000003 cycles: 5017398 heartbeat IPC: 3.98621 cumulative IPC: 3.98613 (Simulation time: 0 hr 1 min 4 sec) 
Heartbeat CPU 0 instructions: 30000002 cycles: 7524830 heartbeat IPC: 3.98814 cumulative IPC: 3.9868 (Simulation time: 0 hr 1 min 35 sec) 
Heartbeat CPU 0 instructions: 40000002 cycles: 10033469 heartbeat IPC: 3.98623 cumulative IPC: 3.98666 (Simulation time: 0 hr 2 min 6 sec) 
Heartbeat CPU 0 instructions: 50000002 cycles: 12541443 heartbeat IPC: 3.98728 cumulative IPC: 3.98678 (Simulation time: 0 hr 2 min 38 sec) 
Heartbeat CPU 0 instructions: 60000001 cycles: 15049511 heartbeat IPC: 3.98713 cumulative IPC: 3.98684 (Simulation time: 0 hr 3 min 9 sec) 
Heartbeat CPU 0 instructions: 70000000 cycles: 17558150 heartbeat IPC: 3.98622 cumulative IPC: 3.98675 (Simulation time: 0 hr 3 min 41 sec) 
Heartbeat CPU 0 instructions: 80000000 cycles: 20066193 heartbeat IPC: 3.98717 cumulative IPC: 3.9868 (Simulation time: 0 hr 4 min 13 sec) 
Heartbeat CPU 0 instructions: 90000003 cycles: 22574210 heartbeat IPC: 3.98722 cumulative IPC: 3.98685 (Simulation time: 0 hr 4 min 44 sec) 
Heartbeat CPU 0 instructions: 100000002 cycles: 25082195 heartbeat IPC: 3.98726 cumulative IPC: 3.98689 (Simulation time: 0 hr 5 min 16 sec) 
Heartbeat CPU 0 instructions: 110000001 cycles: 27589701 heartbeat IPC: 3.98803 cumulative IPC: 3.98699 (Simulation time: 0 hr 5 min 47 sec) 
Heartbeat CPU 0 instructions: 120000002 cycles: 30260224 heartbeat IPC: 3.74459 cumulative IPC: 3.9656 (Simulation time: 0 hr 6 min 22 sec) 
Heartbeat CPU 0 instructions: 130000001 cycles: 32767546 heartbeat IPC: 3.98832 cumulative IPC: 3.96734 (Simulation time: 0 hr 6 min 54 sec) 
Heartbeat CPU 0 instructions: 140000000 cycles: 35275519 heartbeat IPC: 3.98728 cumulative IPC: 3.96876 (Simulation time: 0 hr 7 min 25 sec) 
Heartbeat CPU 0 instructions: 150000002 cycles: 37783493 heartbeat IPC: 3.98728 cumulative IPC: 3.96999 (Simulation time: 0 hr 7 min 57 sec) 
Heartbeat CPU 0 instructions: 160000001 cycles: 40291574 heartbeat IPC: 3.98711 cumulative IPC: 3.97105 (Simulation time: 0 hr 8 min 28 sec) 
Heartbeat CPU 0 instructions: 170000002 cycles: 42799863 heartbeat IPC: 3.98678 cumulative IPC: 3.97198 (Simulation time: 0 hr 9 min 0 sec) 
Heartbeat CPU 0 instructions: 180000000 cycles: 45308548 heartbeat IPC: 3.98615 cumulative IPC: 3.97276 (Simulation time: 0 hr 9 min 32 sec) 
Heartbeat CPU 0 instructions: 190000002 cycles: 47815905 heartbeat IPC: 3.98826 cumulative IPC: 3.97357 (Simulation time: 0 hr 10 min 3 sec) 
Heartbeat CPU 0 instructions: 200000002 cycles: 50323910 heartbeat IPC: 3.98723 cumulative IPC: 3.97425 (Simulation time: 0 hr 10 min 35 sec) 

Warmup complete CPU 0 instructions: 200000002 cycles: 50323910 (Simulation time: 0 hr 10 min 35 sec) 

Heartbeat CPU 0 instructions: 210000003 cycles: 60580383 heartbeat IPC: 0.974994 cumulative IPC: 0.974994 (Simulation time: 0 hr 11 min 8 sec) 
Heartbeat CPU 0 instructions: 220000000 cycles: 70903637 heartbeat IPC: 0.968687 cumulative IPC: 0.97183 (Simulation time: 0 hr 11 min 41 sec) 
Heartbeat CPU 0 instructions: 230000003 cycles: 81193451 heartbeat IPC: 0.971835 cumulative IPC: 0.971832 (Simulation time: 0 hr 12 min 14 sec) 
Heartbeat CPU 0 instructions: 240000001 cycles: 91515311 heartbeat IPC: 0.968817 cumulative IPC: 0.971076 (Simulation time: 0 hr 12 min 47 sec) 
Heartbeat CPU 0 instructions: 250000001 cycles: 101850464 heartbeat IPC: 0.967572 cumulative IPC: 0.970373 (Simulation time: 0 hr 13 min 20 sec) 
Heartbeat CPU 0 instructions: 260000003 cycles: 112115961 heartbeat IPC: 0.974137 cumulative IPC: 0.970999 (Simulation time: 0 hr 13 min 53 sec) 
Heartbeat CPU 0 instructions: 270000003 cycles: 122410178 heartbeat IPC: 0.971419 cumulative IPC: 0.971059 (Simulation time: 0 hr 14 min 26 sec) 
Heartbeat CPU 0 instructions: 280000002 cycles: 132625535 heartbeat IPC: 0.978918 cumulative IPC: 0.972034 (Simulation time: 0 hr 14 min 59 sec) 
Heartbeat CPU 0 instructions: 290000002 cycles: 142837880 heartbeat IPC: 0.979207 cumulative IPC: 0.972826 (Simulation time: 0 hr 15 min 32 sec) 
Heartbeat CPU 0 instructions: 300000001 cycles: 153145644 heartbeat IPC: 0.970142 cumulative IPC: 0.972557 (Simulation time: 0 hr 16 min 6 sec) 
Heartbeat CPU 0 instructions: 310000001 cycles: 163398337 heartbeat IPC: 0.975353 cumulative IPC: 0.972811 (Simulation time: 0 hr 16 min 39 sec) 
Heartbeat CPU 0 instructions: 320000000 cycles: 173677161 heartbeat IPC: 0.972874 cumulative IPC: 0.972816 (Simulation time: 0 hr 17 min 13 sec) 
Heartbeat CPU 0 instructions: 330000000 cycles: 183905301 heartbeat IPC: 0.977695 cumulative IPC: 0.973189 (Simulation time: 0 hr 17 min 47 sec) 
Heartbeat CPU 0 instructions: 340000001 cycles: 194192244 heartbeat IPC: 0.972106 cumulative IPC: 0.973112 (Simulation time: 0 hr 18 min 21 sec) 
Heartbeat CPU 0 instructions: 350000003 cycles: 204494567 heartbeat IPC: 0.970655 cumulative IPC: 0.972948 (Simulation time: 0 hr 18 min 54 sec) 
Heartbeat CPU 0 instructions: 360000000 cycles: 214791782 heartbeat IPC: 0.971136 cumulative IPC: 0.972834 (Simulation time: 0 hr 19 min 28 sec) 
Heartbeat CPU 0 instructions: 370000002 cycles: 224983963 heartbeat IPC: 0.981144 cumulative IPC: 0.973319 (Simulation time: 0 hr 20 min 1 sec) 
Heartbeat CPU 0 instructions: 380000002 cycles: 235347755 heartbeat IPC: 0.964898 cumulative IPC: 0.972848 (Simulation time: 0 hr 20 min 34 sec) 
Heartbeat CPU 0 instructions: 390000000 cycles: 245658248 heartbeat IPC: 0.969886 cumulative IPC: 0.972691 (Simulation time: 0 hr 21 min 7 sec) 
Heartbeat CPU 0 instructions: 400000003 cycles: 255910392 heartbeat IPC: 0.975406 cumulative IPC: 0.972827 (Simulation time: 0 hr 21 min 40 sec) 
Heartbeat CPU 0 instructions: 410000002 cycles: 266163939 heartbeat IPC: 0.975272 cumulative IPC: 0.972943 (Simulation time: 0 hr 22 min 13 sec) 
Heartbeat CPU 0 instructions: 420000000 cycles: 276532422 heartbeat IPC: 0.964461 cumulative IPC: 0.972554 (Simulation time: 0 hr 22 min 46 sec) 
Heartbeat CPU 0 instructions: 430000000 cycles: 286919425 heartbeat IPC: 0.962742 cumulative IPC: 0.972123 (Simulation time: 0 hr 23 min 20 sec) 
Heartbeat CPU 0 instructions: 440000004 cycles: 297146303 heartbeat IPC: 0.977816 cumulative IPC: 0.972359 (Simulation time: 0 hr 23 min 53 sec) 
Heartbeat CPU 0 instructions: 450000003 cycles: 307446451 heartbeat IPC: 0.97086 cumulative IPC: 0.972299 (Simulation time: 0 hr 24 min 26 sec) 
Heartbeat CPU 0 instructions: 460000001 cycles: 317741747 heartbeat IPC: 0.971317 cumulative IPC: 0.972261 (Simulation time: 0 hr 24 min 59 sec) 
Heartbeat CPU 0 instructions: 470000002 cycles: 328136639 heartbeat IPC: 0.962011 cumulative IPC: 0.971878 (Simulation time: 0 hr 25 min 32 sec) 
Heartbeat CPU 0 instructions: 480000000 cycles: 338463852 heartbeat IPC: 0.968315 cumulative IPC: 0.97175 (Simulation time: 0 hr 26 min 5 sec) 
Heartbeat CPU 0 instructions: 490000000 cycles: 348662101 heartbeat IPC: 0.98056 cumulative IPC: 0.972051 (Simulation time: 0 hr 26 min 38 sec) 
Heartbeat CPU 0 instructions: 500000002 cycles: 358865701 heartbeat IPC: 0.980046 cumulative IPC: 0.972316 (Simulation time: 0 hr 27 min 11 sec) 
Heartbeat CPU 0 instructions: 510000004 cycles: 369177200 heartbeat IPC: 0.969791 cumulative IPC: 0.972234 (Simulation time: 0 hr 27 min 44 sec) 
Heartbeat CPU 0 instructions: 520000000 cycles: 379565428 heartbeat IPC: 0.962628 cumulative IPC: 0.971931 (Simulation time: 0 hr 28 min 17 sec) 
Heartbeat CPU 0 instructions: 530000002 cycles: 389903477 heartbeat IPC: 0.967301 cumulative IPC: 0.97179 (Simulation time: 0 hr 28 min 50 sec) 
Heartbeat CPU 0 instructions: 540000001 cycles: 400215515 heartbeat IPC: 0.96974 cumulative IPC: 0.97173 (Simulation time: 0 hr 29 min 24 sec) 
Heartbeat CPU 0 instructions: 550000001 cycles: 410489041 heartbeat IPC: 0.973376 cumulative IPC: 0.971776 (Simulation time: 0 hr 29 min 57 sec) 
Heartbeat CPU 0 instructions: 560000002 cycles: 420802681 heartbeat IPC: 0.96959 cumulative IPC: 0.971716 (Simulation time: 0 hr 30 min 30 sec) 
Heartbeat CPU 0 instructions: 570000004 cycles: 431103370 heartbeat IPC: 0.970809 cumulative IPC: 0.971691 (Simulation time: 0 hr 31 min 3 sec) 
Heartbeat CPU 0 instructions: 580000003 cycles: 441315412 heartbeat IPC: 0.979236 cumulative IPC: 0.971888 (Simulation time: 0 hr 31 min 36 sec) 
Heartbeat CPU 0 instructions: 590000001 cycles: 451552827 heartbeat IPC: 0.976809 cumulative IPC: 0.972014 (Simulation time: 0 hr 32 min 9 sec) 
Heartbeat CPU 0 instructions: 600000002 cycles: 461774678 heartbeat IPC: 0.978297 cumulative IPC: 0.97217 (Simulation time: 0 hr 32 min 42 sec) 
Heartbeat CPU 0 instructions: 610000002 cycles: 472078117 heartbeat IPC: 0.97055 cumulative IPC: 0.97213 (Simulation time: 0 hr 33 min 15 sec) 
Heartbeat CPU 0 instructions: 620000004 cycles: 482408317 heartbeat IPC: 0.968036 cumulative IPC: 0.972032 (Simulation time: 0 hr 33 min 48 sec) 
Heartbeat CPU 0 instructions: 630000003 cycles: 492749499 heartbeat IPC: 0.967007 cumulative IPC: 0.971915 (Simulation time: 0 hr 34 min 21 sec) 
Heartbeat CPU 0 instructions: 640000002 cycles: 503127835 heartbeat IPC: 0.963546 cumulative IPC: 0.971723 (Simulation time: 0 hr 34 min 54 sec) 
Heartbeat CPU 0 instructions: 650000000 cycles: 513448567 heartbeat IPC: 0.968923 cumulative IPC: 0.971661 (Simulation time: 0 hr 35 min 27 sec) 
Heartbeat CPU 0 instructions: 660000002 cycles: 523718354 heartbeat IPC: 0.97373 cumulative IPC: 0.971706 (Simulation time: 0 hr 36 min 0 sec) 
Heartbeat CPU 0 instructions: 670000000 cycles: 534022817 heartbeat IPC: 0.970453 cumulative IPC: 0.971679 (Simulation time: 0 hr 36 min 33 sec) 
Heartbeat CPU 0 instructions: 680000004 cycles: 544361025 heartbeat IPC: 0.967286 cumulative IPC: 0.971587 (Simulation time: 0 hr 37 min 6 sec) 
Heartbeat CPU 0 instructions: 690000001 cycles: 554638450 heartbeat IPC: 0.973006 cumulative IPC: 0.971616 (Simulation time: 0 hr 37 min 39 sec) 
Heartbeat CPU 0 instructions: 700000001 cycles: 564938889 heartbeat IPC: 0.970832 cumulative IPC: 0.9716 (Simulation time: 0 hr 38 min 12 sec) 
Heartbeat CPU 0 instructions: 710000002 cycles: 575180691 heartbeat IPC: 0.976391 cumulative IPC: 0.971694 (Simulation time: 0 hr 38 min 45 sec) 
Heartbeat CPU 0 instructions: 720000000 cycles: 585545824 heartbeat IPC: 0.964773 cumulative IPC: 0.97156 (Simulation time: 0 hr 39 min 18 sec) 
Heartbeat CPU 0 instructions: 730000000 cycles: 595877153 heartbeat IPC: 0.96793 cumulative IPC: 0.971491 (Simulation time: 0 hr 39 min 51 sec) 
Heartbeat CPU 0 instructions: 740000001 cycles: 606200204 heartbeat IPC: 0.968706 cumulative IPC: 0.971439 (Simulation time: 0 hr 40 min 24 sec) 
Heartbeat CPU 0 instructions: 750000000 cycles: 616541416 heartbeat IPC: 0.967005 cumulative IPC: 0.971358 (Simulation time: 0 hr 40 min 57 sec) 
Heartbeat CPU 0 instructions: 760000002 cycles: 626857198 heartbeat IPC: 0.969389 cumulative IPC: 0.971323 (Simulation time: 0 hr 41 min 30 sec) 
Heartbeat CPU 0 instructions: 770000000 cycles: 637110887 heartbeat IPC: 0.975259 cumulative IPC: 0.971392 (Simulation time: 0 hr 42 min 3 sec) 
Heartbeat CPU 0 instructions: 780000002 cycles: 647486250 heartbeat IPC: 0.963822 cumulative IPC: 0.97126 (Simulation time: 0 hr 42 min 37 sec) 
Heartbeat CPU 0 instructions: 790000000 cycles: 657715170 heartbeat IPC: 0.97762 cumulative IPC: 0.971367 (Simulation time: 0 hr 43 min 10 sec) 
Heartbeat CPU 0 instructions: 800000004 cycles: 668031791 heartbeat IPC: 0.96931 cumulative IPC: 0.971333 (Simulation time: 0 hr 43 min 43 sec) 
Heartbeat CPU 0 instructions: 810000000 cycles: 678285189 heartbeat IPC: 0.975286 cumulative IPC: 0.971397 (Simulation time: 0 hr 44 min 16 sec) 
Heartbeat CPU 0 instructions: 820000000 cycles: 688610585 heartbeat IPC: 0.968486 cumulative IPC: 0.97135 (Simulation time: 0 hr 44 min 50 sec) 
Heartbeat CPU 0 instructions: 830000003 cycles: 698898735 heartbeat IPC: 0.971992 cumulative IPC: 0.971361 (Simulation time: 0 hr 45 min 23 sec) 
Heartbeat CPU 0 instructions: 840000002 cycles: 709119159 heartbeat IPC: 0.978433 cumulative IPC: 0.97147 (Simulation time: 0 hr 45 min 56 sec) 
Heartbeat CPU 0 instructions: 850000004 cycles: 719423306 heartbeat IPC: 0.970483 cumulative IPC: 0.971455 (Simulation time: 0 hr 46 min 30 sec) 
Heartbeat CPU 0 instructions: 860000003 cycles: 729676519 heartbeat IPC: 0.975304 cumulative IPC: 0.971513 (Simulation time: 0 hr 47 min 3 sec) 
Heartbeat CPU 0 instructions: 870000004 cycles: 739997089 heartbeat IPC: 0.968939 cumulative IPC: 0.971475 (Simulation time: 0 hr 47 min 36 sec) 
Heartbeat CPU 0 instructions: 880000002 cycles: 750332833 heartbeat IPC: 0.967516 cumulative IPC: 0.971416 (Simulation time: 0 hr 48 min 9 sec) 
Heartbeat CPU 0 instructions: 890000003 cycles: 760520960 heartbeat IPC: 0.981535 cumulative IPC: 0.971561 (Simulation time: 0 hr 48 min 42 sec) 
Heartbeat CPU 0 instructions: 900000000 cycles: 770720775 heartbeat IPC: 0.98041 cumulative IPC: 0.971687 (Simulation time: 0 hr 49 min 16 sec) 
Heartbeat CPU 0 instructions: 910000001 cycles: 780877837 heartbeat IPC: 0.984537 cumulative IPC: 0.971865 (Simulation time: 0 hr 49 min 50 sec) 
Heartbeat CPU 0 instructions: 920000002 cycles: 791141522 heartbeat IPC: 0.974309 cumulative IPC: 0.971899 (Simulation time: 0 hr 50 min 24 sec) 
Heartbeat CPU 0 instructions: 930000002 cycles: 801464415 heartbeat IPC: 0.968721 cumulative IPC: 0.971855 (Simulation time: 0 hr 50 min 57 sec) 
Heartbeat CPU 0 instructions: 940000001 cycles: 811632298 heartbeat IPC: 0.983489 cumulative IPC: 0.972011 (Simulation time: 0 hr 51 min 30 sec) 
Heartbeat CPU 0 instructions: 950000000 cycles: 821892944 heartbeat IPC: 0.974597 cumulative IPC: 0.972045 (Simulation time: 0 hr 52 min 4 sec) 
Heartbeat CPU 0 instructions: 960000001 cycles: 835997179 heartbeat IPC: 0.709007 cumulative IPC: 0.967323 (Simulation time: 0 hr 52 min 49 sec) 
Heartbeat CPU 0 instructions: 970000003 cycles: 846265517 heartbeat IPC: 0.973868 cumulative IPC: 0.967408 (Simulation time: 0 hr 53 min 22 sec) 
Heartbeat CPU 0 instructions: 980000001 cycles: 856422045 heartbeat IPC: 0.984588 cumulative IPC: 0.967624 (Simulation time: 0 hr 53 min 55 sec) 
Heartbeat CPU 0 instructions: 990000001 cycles: 866653995 heartbeat IPC: 0.977331 cumulative IPC: 0.967746 (Simulation time: 0 hr 54 min 29 sec) 
Heartbeat CPU 0 instructions: 1000000001 cycles: 876976211 heartbeat IPC: 0.968784 cumulative IPC: 0.967759 (Simulation time: 0 hr 55 min 2 sec) 
Heartbeat CPU 0 instructions: 1010000001 cycles: 887214482 heartbeat IPC: 0.976727 cumulative IPC: 0.967868 (Simulation time: 0 hr 55 min 36 sec) 
Heartbeat CPU 0 instructions: 1020000001 cycles: 897391027 heartbeat IPC: 0.982652 cumulative IPC: 0.968046 (Simulation time: 0 hr 56 min 9 sec) 
Heartbeat CPU 0 instructions: 1030000001 cycles: 907589999 heartbeat IPC: 0.980491 cumulative IPC: 0.968194 (Simulation time: 0 hr 56 min 42 sec) 
Heartbeat CPU 0 instructions: 1040000004 cycles: 917780175 heartbeat IPC: 0.981338 cumulative IPC: 0.968349 (Simulation time: 0 hr 57 min 15 sec) 
Heartbeat CPU 0 instructions: 1050000003 cycles: 928062826 heartbeat IPC: 0.972512 cumulative IPC: 0.968397 (Simulation time: 0 hr 57 min 49 sec) 
Heartbeat CPU 0 instructions: 1060000000 cycles: 938280303 heartbeat IPC: 0.978715 cumulative IPC: 0.968516 (Simulation time: 0 hr 58 min 22 sec) 
Heartbeat CPU 0 instructions: 1070000003 cycles: 948449204 heartbeat IPC: 0.983391 cumulative IPC: 0.968684 (Simulation time: 0 hr 58 min 55 sec) 
Heartbeat CPU 0 instructions: 1080000003 cycles: 958717468 heartbeat IPC: 0.973874 cumulative IPC: 0.968743 (Simulation time: 0 hr 59 min 28 sec) 
Heartbeat CPU 0 instructions: 1090000000 cycles: 968992740 heartbeat IPC: 0.97321 cumulative IPC: 0.968793 (Simulation time: 1 hr 0 min 1 sec) 
Heartbeat CPU 0 instructions: 1100000001 cycles: 979147837 heartbeat IPC: 0.984727 cumulative IPC: 0.968967 (Simulation time: 1 hr 0 min 34 sec) 
Heartbeat CPU 0 instructions: 1110000000 cycles: 989494043 heartbeat IPC: 0.966538 cumulative IPC: 0.96894 (Simulation time: 1 hr 1 min 7 sec) 
Heartbeat CPU 0 instructions: 1120000001 cycles: 999754534 heartbeat IPC: 0.974612 cumulative IPC: 0.969002 (Simulation time: 1 hr 1 min 40 sec) 
Heartbeat CPU 0 instructions: 1130000000 cycles: 1010060672 heartbeat IPC: 0.970295 cumulative IPC: 0.969016 (Simulation time: 1 hr 2 min 14 sec) 
Heartbeat CPU 0 instructions: 1140000001 cycles: 1020216484 heartbeat IPC: 0.984658 cumulative IPC: 0.96918 (Simulation time: 1 hr 2 min 47 sec) 
Heartbeat CPU 0 instructions: 1150000002 cycles: 1030403932 heartbeat IPC: 0.9816 cumulative IPC: 0.969309 (Simulation time: 1 hr 3 min 20 sec) 
Heartbeat CPU 0 instructions: 1160000001 cycles: 1040756133 heartbeat IPC: 0.965978 cumulative IPC: 0.969274 (Simulation time: 1 hr 3 min 53 sec) 
Heartbeat CPU 0 instructions: 1170000000 cycles: 1050982983 heartbeat IPC: 0.977818 cumulative IPC: 0.969361 (Simulation time: 1 hr 4 min 27 sec) 
Heartbeat CPU 0 instructions: 1180000001 cycles: 1061164970 heartbeat IPC: 0.982127 cumulative IPC: 0.96949 (Simulation time: 1 hr 5 min 0 sec) 
Heartbeat CPU 0 instructions: 1190000002 cycles: 1071459132 heartbeat IPC: 0.971424 cumulative IPC: 0.969509 (Simulation time: 1 hr 5 min 33 sec) 
Heartbeat CPU 0 instructions: 1200000003 cycles: 1081706302 heartbeat IPC: 0.975879 cumulative IPC: 0.969572 (Simulation time: 1 hr 6 min 6 sec) 
Finished CPU 0 instructions: 1000000001 cycles: 1031382392 cumulative IPC: 0.969572 (Simulation time: 1 hr 6 min 6 sec) 

ChampSim completed all CPUs

Region of Interest Statistics

CPU 0 cumulative IPC: 0.969572 instructions: 1000000001 cycles: 1031382392
cpu0_DTLB TOTAL     ACCESS:  192404478  HIT:  192002666  MISS:     401812
cpu0_DTLB LOAD      ACCESS:  133287104  HIT:  132897875  MISS:     389229
cpu0_DTLB RFO       ACCESS:   59117374  HIT:   59104791  MISS:      12583
cpu0_DTLB PREFETCH  ACCESS:          0  HIT:          0  MISS:          0
cpu0_DTLB WRITEBACK ACCESS:          0  HIT:          0  MISS:          0
cpu0_DTLB TRANSLATION ACCESS:          0  HIT:          0  MISS:          0
cpu0_DTLB PREFETCH  REQUESTED:          0  ISSUED:          0  USEFUL:          0  USELESS:          0
cpu0_DTLB AVERAGE MISS LATENCY: 9.2152 cycles
cpu0_ITLB TOTAL     ACCESS:  105604021  HIT:  105603990  MISS:         31
cpu0_ITLB LOAD      ACCESS:  105604021  HIT:  105603990  MISS:         31
cpu0_ITLB RFO       ACCESS:          0  HIT:          0  MISS:          0
cpu0_ITLB PREFETCH  ACCESS:          0  HIT:          0  MISS:          0
cpu0_ITLB WRITEBACK ACCESS:          0  HIT:          0  MISS:          0
cpu0_ITLB TRANSLATION ACCESS:          0  HIT:          0  MISS:          0
cpu0_ITLB PREFETCH  REQUESTED:          0  ISSUED:          0  USEFUL:          0  USELESS:          0
cpu0_ITLB AVERAGE MISS LATENCY: 14.4194 cycles
cpu0_L1I TOTAL     ACCESS:   95732293  HIT:   95711323  MISS:      20970
cpu0_L1I LOAD      ACCESS:   95732293  HIT:   95711323  MISS:      20970
cpu0_L1I RFO       ACCESS:          0  HIT:          0  MISS:          0
cpu0_L1I PREFETCH  ACCESS:          0  HIT:          0  MISS:          0
cpu0_L1I WRITEBACK ACCESS:          0  HIT:          0  MISS:          0
cpu0_L1I TRANSLATION ACCESS:          0  HIT:          0  MISS:          0
cpu0_L1I PREFETCH  REQUESTED:          0  ISSUED:          0  USEFUL:          0  USELESS:          0
cpu0_L1I AVERAGE MISS LATENCY: 19.8069 cycles
cpu0_STLB TOTAL     ACCESS:     401843  HIT:     400987  MISS:        856
cpu0_STLB LOAD      ACCESS:     389260  HIT:     388624  MISS:        636
cpu0_STLB RFO       ACCESS:      12583  HIT:      12363  MISS:        220
cpu0_STLB PREFETCH  ACCESS:          0  HIT:          0  MISS:          0
cpu0_STLB WRITEBACK ACCESS:          0  HIT:          0  MISS:          0
cpu0_STLB TRANSLATION ACCESS:          0  HIT:          0  MISS:          0
cpu0_STLB PREFETCH  REQUESTED:          0  ISSUED:          0  USEFUL:          0  USELESS:          0
cpu0_STLB AVERAGE MISS LATENCY: 101.119 cycles
cpu0_L1D TOTAL     ACCESS:  271356591  HIT:  269092152  MISS:    2264439
cpu0_L1D LOAD      ACCESS:  157863456  HIT:  155840321  MISS:    2023135
cpu0_L1D RFO       ACCESS:  113492279  HIT:  113251430  MISS:     240849
cpu0_L1D PREFETCH  ACCESS:          0  HIT:          0  MISS:          0
cpu0_L1D WRITEBACK ACCESS:          0  HIT:          0  MISS:          0
cpu0_L1D TRANSLATION ACCESS:        856  HIT:        401  MISS:        455
cpu0_L1D PREFETCH  REQUESTED:          0  ISSUED:          0  USEFUL:          0  USELESS:          0
cpu0_L1D AVERAGE MISS LATENCY: 23.6718 cycles
cpu0_L2C TOTAL     ACCESS:    4198612  HIT:    4114633  MISS:      83979
cpu0_L2C LOAD      ACCESS:    2044097  HIT:    2012512  MISS:      31585
cpu0_L2C RFO       ACCESS:     240846  HIT:     204656  MISS:      36190
cpu0_L2C PREFETCH  ACCESS:    1490033  HIT:    1473858  MISS:      16175
cpu0_L2C WRITEBACK ACCESS:     423181  HIT:     423162  MISS:         19
cpu0_L2C TRANSLATION ACCESS:        455  HIT:        445  MISS:         10
cpu0_L2C PREFETCH  REQUESTED:    2010111  ISSUED:    1960378  USEFUL:      19155  USELESS:        100
cpu0_L2C AVERAGE MISS LATENCY: 344.085 cycles
LLC TOTAL     ACCESS:     472375  HIT:     400362  MISS:      72013
LLC LOAD      ACCESS:      28492  HIT:      20214  MISS:       8278
LLC RFO       ACCESS:      36190  HIT:       5488  MISS:      30702
LLC PREFETCH  ACCESS:     368164  HIT:     335228  MISS:      32936
LLC WRITEBACK ACCESS:      39519  HIT:      39425  MISS:         94
LLC TRANSLATION ACCESS:         10  HIT:          7  MISS:          3
LLC PREFETCH  REQUESTED:          0  ISSUED:          0  USEFUL:          0  USELESS:          0
LLC AVERAGE MISS LATENCY: 677.282 cycles

DRAM Statistics
 CHANNEL 0
 RQ ROW_BUFFER_HIT:       8355  ROW_BUFFER_MISS:      63497
 DBUS AVG_CONGESTED_CYCLE:    3.97311
 WQ ROW_BUFFER_HIT:       1511  ROW_BUFFER_MISS:      33479  FULL:          0


CPU 0 Branch Prediction Accuracy: 85.2323% MPKI: 24.1499 Average ROB Occupancy at Mispredict: 16.0784
Branch type MPKI
BRANCH_DIRECT_JUMP: 9e-06
BRANCH_INDIRECT: 0.000567
BRANCH_CONDITIONAL: 24.1493
BRANCH_DIRECT_CALL: 3e-06
BRANCH_INDIRECT_CALL: 8e-06
BRANCH_RETURN: 1.1e-05

