Initialize SIGNATURE TABLE
ST_SET: 1
ST_WAY: 256
ST_TAG_BIT: 16
ST_TAG_MASK: ffff

Initialize PATTERN TABLE
PT_SET: 512
PT_WAY: 4
SIG_DELTA_BIT: 7
C_SIG_BIT: 4
C_DELTA_BIT: 4

Initialize PREFETCH FILTER
FILTER_SET: 1024

*** ChampSim Multicore Out-of-Order Simulator ***

Warmup Instructions: 200000000
Simulation Instructions: 1000000000
Number of CPUs: 1
Off-chip DRAM Size: 4 GiB Channels: 1 Width: 64-bit Data Rate: 3200 MT/s

VirtualMemory physical capacity: 8588881920 num_ppages: 2096895
VirtualMemory page size: 4096 log2_page_size: 12

CPU 0 runs /home/faculty/p/pgratz/dpc3_traces/623.xalancbmk_s-700B.champsimtrace.xz
CPU 0 Bimodal branch predictor
Basic BTB sets: 1024 ways: 8 indirect buffer size: 4096 RAS size: 64
WARNING: The extended signature CACHE::prefetch_line(ip, base_addr, pf_addr, fill_this_level, prefetch_metadata) is deprecated.
WARNING: Use CACHE::prefetch_line(pf_addr, fill_this_level, prefetch_metadata) instead.
Heartbeat CPU 0 instructions: 10000001 cycles: 2821753 heartbeat IPC: 3.5439 cumulative IPC: 3.5439 (Simulation time: 0 hr 0 min 36 sec) 
Heartbeat CPU 0 instructions: 20000003 cycles: 5951862 heartbeat IPC: 3.19478 cumulative IPC: 3.36029 (Simulation time: 0 hr 1 min 14 sec) 
Heartbeat CPU 0 instructions: 30000002 cycles: 8836217 heartbeat IPC: 3.46698 cumulative IPC: 3.39512 (Simulation time: 0 hr 1 min 52 sec) 
Heartbeat CPU 0 instructions: 40000002 cycles: 11563574 heartbeat IPC: 3.66655 cumulative IPC: 3.45914 (Simulation time: 0 hr 2 min 28 sec) 
Heartbeat CPU 0 instructions: 50000003 cycles: 14329246 heartbeat IPC: 3.61576 cumulative IPC: 3.48937 (Simulation time: 0 hr 3 min 4 sec) 
Heartbeat CPU 0 instructions: 60000001 cycles: 17378668 heartbeat IPC: 3.27931 cumulative IPC: 3.45251 (Simulation time: 0 hr 3 min 41 sec) 
Heartbeat CPU 0 instructions: 70000003 cycles: 20558671 heartbeat IPC: 3.14465 cumulative IPC: 3.40489 (Simulation time: 0 hr 4 min 20 sec) 
Heartbeat CPU 0 instructions: 80000000 cycles: 23428959 heartbeat IPC: 3.48397 cumulative IPC: 3.41458 (Simulation time: 0 hr 4 min 58 sec) 
Heartbeat CPU 0 instructions: 90000002 cycles: 26305299 heartbeat IPC: 3.47664 cumulative IPC: 3.42136 (Simulation time: 0 hr 5 min 35 sec) 
Heartbeat CPU 0 instructions: 100000001 cycles: 29124634 heartbeat IPC: 3.54694 cumulative IPC: 3.43352 (Simulation time: 0 hr 6 min 13 sec) 
Heartbeat CPU 0 instructions: 110000001 cycles: 31840715 heartbeat IPC: 3.68178 cumulative IPC: 3.4547 (Simulation time: 0 hr 6 min 48 sec) 
Heartbeat CPU 0 instructions: 120000001 cycles: 34596755 heartbeat IPC: 3.62839 cumulative IPC: 3.46853 (Simulation time: 0 hr 7 min 23 sec) 
Heartbeat CPU 0 instructions: 130000004 cycles: 37604351 heartbeat IPC: 3.32492 cumulative IPC: 3.45705 (Simulation time: 0 hr 8 min 0 sec) 
Heartbeat CPU 0 instructions: 140000003 cycles: 40779993 heartbeat IPC: 3.14897 cumulative IPC: 3.43306 (Simulation time: 0 hr 8 min 40 sec) 
Heartbeat CPU 0 instructions: 150000000 cycles: 43568255 heartbeat IPC: 3.58646 cumulative IPC: 3.44287 (Simulation time: 0 hr 9 min 16 sec) 
Heartbeat CPU 0 instructions: 160000002 cycles: 46561419 heartbeat IPC: 3.34095 cumulative IPC: 3.43632 (Simulation time: 0 hr 9 min 55 sec) 
Heartbeat CPU 0 instructions: 170000000 cycles: 49400952 heartbeat IPC: 3.52171 cumulative IPC: 3.44123 (Simulation time: 0 hr 10 min 32 sec) 
Heartbeat CPU 0 instructions: 180000002 cycles: 52110516 heartbeat IPC: 3.69063 cumulative IPC: 3.4542 (Simulation time: 0 hr 11 min 8 sec) 
Heartbeat CPU 0 instructions: 190000003 cycles: 54857363 heartbeat IPC: 3.64054 cumulative IPC: 3.46353 (Simulation time: 0 hr 11 min 43 sec) 
Heartbeat CPU 0 instructions: 200000003 cycles: 57760123 heartbeat IPC: 3.445 cumulative IPC: 3.4626 (Simulation time: 0 hr 12 min 19 sec) 

Warmup complete CPU 0 instructions: 200000003 cycles: 57760123 (Simulation time: 0 hr 12 min 19 sec) 

Heartbeat CPU 0 instructions: 210000002 cycles: 67466122 heartbeat IPC: 1.03029 cumulative IPC: 1.03029 (Simulation time: 0 hr 13 min 14 sec) 
Heartbeat CPU 0 instructions: 220000000 cycles: 81312382 heartbeat IPC: 0.722217 cumulative IPC: 0.849175 (Simulation time: 0 hr 14 min 12 sec) 
Heartbeat CPU 0 instructions: 230000001 cycles: 92713159 heartbeat IPC: 0.877133 cumulative IPC: 0.858294 (Simulation time: 0 hr 15 min 3 sec) 
Heartbeat CPU 0 instructions: 240000002 cycles: 103208819 heartbeat IPC: 0.952775 cumulative IPC: 0.880113 (Simulation time: 0 hr 15 min 52 sec) 
Heartbeat CPU 0 instructions: 250000004 cycles: 113197373 heartbeat IPC: 1.00115 cumulative IPC: 0.901921 (Simulation time: 0 hr 16 min 41 sec) 
Heartbeat CPU 0 instructions: 260000001 cycles: 122528128 heartbeat IPC: 1.07172 cumulative IPC: 0.926383 (Simulation time: 0 hr 17 min 30 sec) 
Heartbeat CPU 0 instructions: 270000001 cycles: 130293187 heartbeat IPC: 1.28782 cumulative IPC: 0.965077 (Simulation time: 0 hr 18 min 22 sec) 
Heartbeat CPU 0 instructions: 280000001 cycles: 138946433 heartbeat IPC: 1.15564 cumulative IPC: 0.985388 (Simulation time: 0 hr 19 min 14 sec) 
Heartbeat CPU 0 instructions: 290000001 cycles: 150149703 heartbeat IPC: 0.892597 cumulative IPC: 0.974136 (Simulation time: 0 hr 20 min 10 sec) 
Heartbeat CPU 0 instructions: 300000000 cycles: 164885216 heartbeat IPC: 0.678633 cumulative IPC: 0.933488 (Simulation time: 0 hr 21 min 6 sec) 
Heartbeat CPU 0 instructions: 310000000 cycles: 176348398 heartbeat IPC: 0.872358 cumulative IPC: 0.927579 (Simulation time: 0 hr 21 min 56 sec) 
Heartbeat CPU 0 instructions: 320000001 cycles: 189223174 heartbeat IPC: 0.776713 cumulative IPC: 0.912804 (Simulation time: 0 hr 22 min 53 sec) 
Heartbeat CPU 0 instructions: 330000001 cycles: 200785800 heartbeat IPC: 0.864855 cumulative IPC: 0.908928 (Simulation time: 0 hr 23 min 44 sec) 
Heartbeat CPU 0 instructions: 340000002 cycles: 211309264 heartbeat IPC: 0.950258 cumulative IPC: 0.91176 (Simulation time: 0 hr 24 min 33 sec) 
Heartbeat CPU 0 instructions: 350000001 cycles: 221270033 heartbeat IPC: 1.00394 cumulative IPC: 0.917376 (Simulation time: 0 hr 25 min 21 sec) 
Heartbeat CPU 0 instructions: 360000000 cycles: 230905420 heartbeat IPC: 1.03784 cumulative IPC: 0.924079 (Simulation time: 0 hr 26 min 10 sec) 
Heartbeat CPU 0 instructions: 370000003 cycles: 240293745 heartbeat IPC: 1.06515 cumulative IPC: 0.931335 (Simulation time: 0 hr 27 min 0 sec) 
Heartbeat CPU 0 instructions: 380000004 cycles: 247665827 heartbeat IPC: 1.35647 cumulative IPC: 0.947839 (Simulation time: 0 hr 27 min 50 sec) 
Heartbeat CPU 0 instructions: 390000001 cycles: 255131948 heartbeat IPC: 1.33938 cumulative IPC: 0.96265 (Simulation time: 0 hr 28 min 42 sec) 
Heartbeat CPU 0 instructions: 400000001 cycles: 263586483 heartbeat IPC: 1.1828 cumulative IPC: 0.971693 (Simulation time: 0 hr 29 min 34 sec) 
Heartbeat CPU 0 instructions: 410000000 cycles: 273724980 heartbeat IPC: 0.986339 cumulative IPC: 0.97238 (Simulation time: 0 hr 30 min 27 sec) 
Heartbeat CPU 0 instructions: 420000000 cycles: 288440890 heartbeat IPC: 0.679537 cumulative IPC: 0.953699 (Simulation time: 0 hr 31 min 26 sec) 
Heartbeat CPU 0 instructions: 430000000 cycles: 300440605 heartbeat IPC: 0.833353 cumulative IPC: 0.947748 (Simulation time: 0 hr 32 min 15 sec) 
Heartbeat CPU 0 instructions: 440000001 cycles: 311362423 heartbeat IPC: 0.915599 cumulative IPC: 0.946364 (Simulation time: 0 hr 33 min 3 sec) 
Heartbeat CPU 0 instructions: 450000002 cycles: 321494696 heartbeat IPC: 0.986945 cumulative IPC: 0.947923 (Simulation time: 0 hr 33 min 53 sec) 
Heartbeat CPU 0 instructions: 460000003 cycles: 330625673 heartbeat IPC: 1.09517 cumulative IPC: 0.95285 (Simulation time: 0 hr 34 min 47 sec) 
Heartbeat CPU 0 instructions: 470000003 cycles: 344671173 heartbeat IPC: 0.711972 cumulative IPC: 0.941058 (Simulation time: 0 hr 35 min 45 sec) 
Heartbeat CPU 0 instructions: 480000004 cycles: 356273077 heartbeat IPC: 0.861928 cumulative IPC: 0.937983 (Simulation time: 0 hr 36 min 33 sec) 
Heartbeat CPU 0 instructions: 490000003 cycles: 366895964 heartbeat IPC: 0.941364 cumulative IPC: 0.938099 (Simulation time: 0 hr 37 min 24 sec) 
Heartbeat CPU 0 instructions: 500000003 cycles: 379922044 heartbeat IPC: 0.767691 cumulative IPC: 0.931209 (Simulation time: 0 hr 38 min 23 sec) 
Heartbeat CPU 0 instructions: 510000000 cycles: 391991104 heartbeat IPC: 0.828565 cumulative IPC: 0.927502 (Simulation time: 0 hr 39 min 14 sec) 
Heartbeat CPU 0 instructions: 520000003 cycles: 402842238 heartbeat IPC: 0.921563 cumulative IPC: 0.927316 (Simulation time: 0 hr 40 min 3 sec) 
Heartbeat CPU 0 instructions: 530000000 cycles: 412934556 heartbeat IPC: 0.990852 cumulative IPC: 0.929121 (Simulation time: 0 hr 40 min 52 sec) 
Heartbeat CPU 0 instructions: 540000004 cycles: 422632085 heartbeat IPC: 1.03119 cumulative IPC: 0.931834 (Simulation time: 0 hr 41 min 41 sec) 
Heartbeat CPU 0 instructions: 550000000 cycles: 432054871 heartbeat IPC: 1.06126 cumulative IPC: 0.935092 (Simulation time: 0 hr 42 min 30 sec) 
Heartbeat CPU 0 instructions: 560000002 cycles: 441337344 heartbeat IPC: 1.0773 cumulative IPC: 0.938533 (Simulation time: 0 hr 43 min 20 sec) 
Heartbeat CPU 0 instructions: 570000000 cycles: 448392420 heartbeat IPC: 1.41742 cumulative IPC: 0.947182 (Simulation time: 0 hr 44 min 11 sec) 
Heartbeat CPU 0 instructions: 580000001 cycles: 455525039 heartbeat IPC: 1.40201 cumulative IPC: 0.955338 (Simulation time: 0 hr 45 min 2 sec) 
Heartbeat CPU 0 instructions: 590000002 cycles: 463526006 heartbeat IPC: 1.24985 cumulative IPC: 0.961145 (Simulation time: 0 hr 45 min 53 sec) 
Heartbeat CPU 0 instructions: 600000001 cycles: 472633858 heartbeat IPC: 1.09795 cumulative IPC: 0.964149 (Simulation time: 0 hr 46 min 46 sec) 
Heartbeat CPU 0 instructions: 610000001 cycles: 484074095 heartbeat IPC: 0.874108 cumulative IPC: 0.961733 (Simulation time: 0 hr 47 min 40 sec) 
Heartbeat CPU 0 instructions: 620000000 cycles: 499025478 heartbeat IPC: 0.668834 cumulative IPC: 0.951808 (Simulation time: 0 hr 48 min 37 sec) 
Heartbeat CPU 0 instructions: 630000003 cycles: 511652870 heartbeat IPC: 0.791929 cumulative IPC: 0.94736 (Simulation time: 0 hr 49 min 33 sec) 
Heartbeat CPU 0 instructions: 640000003 cycles: 524311520 heartbeat IPC: 0.789974 cumulative IPC: 0.94309 (Simulation time: 0 hr 50 min 27 sec) 
Heartbeat CPU 0 instructions: 650000001 cycles: 535577999 heartbeat IPC: 0.887589 cumulative IPC: 0.941781 (Simulation time: 0 hr 51 min 16 sec) 
Heartbeat CPU 0 instructions: 660000000 cycles: 545939208 heartbeat IPC: 0.965138 cumulative IPC: 0.942277 (Simulation time: 0 hr 52 min 5 sec) 
Heartbeat CPU 0 instructions: 670000003 cycles: 555859570 heartbeat IPC: 1.00803 cumulative IPC: 0.943587 (Simulation time: 0 hr 52 min 53 sec) 
Heartbeat CPU 0 instructions: 680000000 cycles: 565342818 heartbeat IPC: 1.05449 cumulative IPC: 0.945659 (Simulation time: 0 hr 53 min 43 sec) 
Heartbeat CPU 0 instructions: 690000001 cycles: 572721277 heartbeat IPC: 1.3553 cumulative IPC: 0.951528 (Simulation time: 0 hr 54 min 34 sec) 
Heartbeat CPU 0 instructions: 700000001 cycles: 581440470 heartbeat IPC: 1.1469 cumulative IPC: 0.954781 (Simulation time: 0 hr 55 min 27 sec) 
Heartbeat CPU 0 instructions: 710000002 cycles: 592647926 heartbeat IPC: 0.892263 cumulative IPC: 0.953471 (Simulation time: 0 hr 56 min 23 sec) 
Heartbeat CPU 0 instructions: 720000003 cycles: 606686762 heartbeat IPC: 0.71231 cumulative IPC: 0.947303 (Simulation time: 0 hr 57 min 18 sec) 
Heartbeat CPU 0 instructions: 730000000 cycles: 619116840 heartbeat IPC: 0.8045 cumulative IPC: 0.944141 (Simulation time: 0 hr 58 min 14 sec) 
Heartbeat CPU 0 instructions: 740000001 cycles: 631463335 heartbeat IPC: 0.809947 cumulative IPC: 0.941253 (Simulation time: 0 hr 59 min 7 sec) 
Heartbeat CPU 0 instructions: 750000003 cycles: 644681866 heartbeat IPC: 0.756514 cumulative IPC: 0.937093 (Simulation time: 1 hr 0 min 2 sec) 
Heartbeat CPU 0 instructions: 760000001 cycles: 657983273 heartbeat IPC: 0.7518 cumulative IPC: 0.932986 (Simulation time: 1 hr 0 min 57 sec) 
Heartbeat CPU 0 instructions: 770000000 cycles: 669623459 heartbeat IPC: 0.859093 cumulative IPC: 0.931581 (Simulation time: 1 hr 1 min 46 sec) 
Heartbeat CPU 0 instructions: 780000001 cycles: 680313188 heartbeat IPC: 0.935477 cumulative IPC: 0.931647 (Simulation time: 1 hr 2 min 34 sec) 
Heartbeat CPU 0 instructions: 790000001 cycles: 690287910 heartbeat IPC: 1.00253 cumulative IPC: 0.932765 (Simulation time: 1 hr 3 min 23 sec) 
Heartbeat CPU 0 instructions: 800000003 cycles: 698834502 heartbeat IPC: 1.17006 cumulative IPC: 0.935929 (Simulation time: 1 hr 4 min 16 sec) 
Heartbeat CPU 0 instructions: 810000000 cycles: 709743209 heartbeat IPC: 0.916699 cumulative IPC: 0.935607 (Simulation time: 1 hr 5 min 12 sec) 
Heartbeat CPU 0 instructions: 820000003 cycles: 723398775 heartbeat IPC: 0.732302 cumulative IPC: 0.931436 (Simulation time: 1 hr 6 min 7 sec) 
Heartbeat CPU 0 instructions: 830000000 cycles: 735815443 heartbeat IPC: 0.805369 cumulative IPC: 0.929128 (Simulation time: 1 hr 7 min 3 sec) 
Heartbeat CPU 0 instructions: 840000001 cycles: 748644630 heartbeat IPC: 0.779473 cumulative IPC: 0.926349 (Simulation time: 1 hr 7 min 56 sec) 
Heartbeat CPU 0 instructions: 850000001 cycles: 759914136 heartbeat IPC: 0.88735 cumulative IPC: 0.925723 (Simulation time: 1 hr 8 min 44 sec) 
Heartbeat CPU 0 instructions: 860000003 cycles: 772130141 heartbeat IPC: 0.818598 cumulative IPC: 0.923891 (Simulation time: 1 hr 9 min 44 sec) 
Heartbeat CPU 0 instructions: 870000001 cycles: 784203005 heartbeat IPC: 0.828304 cumulative IPC: 0.922302 (Simulation time: 1 hr 10 min 33 sec) 
Heartbeat CPU 0 instructions: 880000000 cycles: 795152078 heartbeat IPC: 0.913319 cumulative IPC: 0.922169 (Simulation time: 1 hr 11 min 21 sec) 
Heartbeat CPU 0 instructions: 890000001 cycles: 805714242 heartbeat IPC: 0.946776 cumulative IPC: 0.922516 (Simulation time: 1 hr 12 min 18 sec) 
Heartbeat CPU 0 instructions: 900000001 cycles: 819740970 heartbeat IPC: 0.712925 cumulative IPC: 0.918658 (Simulation time: 1 hr 13 min 15 sec) 
Heartbeat CPU 0 instructions: 910000000 cycles: 831479110 heartbeat IPC: 0.851924 cumulative IPC: 0.917646 (Simulation time: 1 hr 14 min 5 sec) 
Heartbeat CPU 0 instructions: 920000004 cycles: 842350957 heartbeat IPC: 0.919807 cumulative IPC: 0.917676 (Simulation time: 1 hr 14 min 53 sec) 
Heartbeat CPU 0 instructions: 930000000 cycles: 851903198 heartbeat IPC: 1.04687 cumulative IPC: 0.91923 (Simulation time: 1 hr 15 min 46 sec) 
Heartbeat CPU 0 instructions: 940000001 cycles: 864804304 heartbeat IPC: 0.775127 cumulative IPC: 0.916926 (Simulation time: 1 hr 16 min 46 sec) 
Heartbeat CPU 0 instructions: 950000001 cycles: 876673208 heartbeat IPC: 0.842538 cumulative IPC: 0.915848 (Simulation time: 1 hr 17 min 36 sec) 
Heartbeat CPU 0 instructions: 960000001 cycles: 889348265 heartbeat IPC: 0.788951 cumulative IPC: 0.913914 (Simulation time: 1 hr 18 min 34 sec) 
Heartbeat CPU 0 instructions: 970000003 cycles: 900852603 heartbeat IPC: 0.869237 cumulative IPC: 0.913304 (Simulation time: 1 hr 19 min 25 sec) 
Heartbeat CPU 0 instructions: 980000000 cycles: 911481754 heartbeat IPC: 0.940809 cumulative IPC: 0.913647 (Simulation time: 1 hr 20 min 14 sec) 
Heartbeat CPU 0 instructions: 990000001 cycles: 921524481 heartbeat IPC: 0.995746 cumulative IPC: 0.914601 (Simulation time: 1 hr 21 min 3 sec) 
Heartbeat CPU 0 instructions: 1000000003 cycles: 930012676 heartbeat IPC: 1.17811 cumulative IPC: 0.917166 (Simulation time: 1 hr 21 min 55 sec) 
Heartbeat CPU 0 instructions: 1010000001 cycles: 939282849 heartbeat IPC: 1.07873 cumulative IPC: 0.918865 (Simulation time: 1 hr 22 min 50 sec) 
Heartbeat CPU 0 instructions: 1020000001 cycles: 953114225 heartbeat IPC: 0.722994 cumulative IPC: 0.915839 (Simulation time: 1 hr 23 min 51 sec) 
Heartbeat CPU 0 instructions: 1030000000 cycles: 965067243 heartbeat IPC: 0.836609 cumulative IPC: 0.914795 (Simulation time: 1 hr 24 min 41 sec) 
Heartbeat CPU 0 instructions: 1040000000 cycles: 976122645 heartbeat IPC: 0.904535 cumulative IPC: 0.914671 (Simulation time: 1 hr 25 min 31 sec) 
Heartbeat CPU 0 instructions: 1050000001 cycles: 988031825 heartbeat IPC: 0.839688 cumulative IPC: 0.913712 (Simulation time: 1 hr 26 min 30 sec) 
Heartbeat CPU 0 instructions: 1060000001 cycles: 1000310662 heartbeat IPC: 0.814409 cumulative IPC: 0.912418 (Simulation time: 1 hr 27 min 21 sec) 
Heartbeat CPU 0 instructions: 1070000001 cycles: 1011304218 heartbeat IPC: 0.909624 cumulative IPC: 0.912386 (Simulation time: 1 hr 28 min 10 sec) 
Heartbeat CPU 0 instructions: 1080000001 cycles: 1021235051 heartbeat IPC: 1.00696 cumulative IPC: 0.913361 (Simulation time: 1 hr 29 min 5 sec) 
Heartbeat CPU 0 instructions: 1090000004 cycles: 1034917070 heartbeat IPC: 0.730887 cumulative IPC: 0.910806 (Simulation time: 1 hr 30 min 3 sec) 
Heartbeat CPU 0 instructions: 1100000000 cycles: 1046349278 heartbeat IPC: 0.874721 cumulative IPC: 0.910388 (Simulation time: 1 hr 30 min 52 sec) 
Heartbeat CPU 0 instructions: 1110000004 cycles: 1056893695 heartbeat IPC: 0.94837 cumulative IPC: 0.910789 (Simulation time: 1 hr 31 min 43 sec) 
Heartbeat CPU 0 instructions: 1120000000 cycles: 1067934738 heartbeat IPC: 0.905711 cumulative IPC: 0.910734 (Simulation time: 1 hr 32 min 42 sec) 
Heartbeat CPU 0 instructions: 1130000000 cycles: 1080929767 heartbeat IPC: 0.769525 cumulative IPC: 0.90894 (Simulation time: 1 hr 33 min 35 sec) 
Heartbeat CPU 0 instructions: 1140000000 cycles: 1091961597 heartbeat IPC: 0.906468 cumulative IPC: 0.908914 (Simulation time: 1 hr 34 min 25 sec) 
Heartbeat CPU 0 instructions: 1150000000 cycles: 1102250989 heartbeat IPC: 0.971875 cumulative IPC: 0.909534 (Simulation time: 1 hr 35 min 14 sec) 
Heartbeat CPU 0 instructions: 1160000003 cycles: 1111014496 heartbeat IPC: 1.1411 cumulative IPC: 0.911461 (Simulation time: 1 hr 36 min 8 sec) 
Heartbeat CPU 0 instructions: 1170000002 cycles: 1121488350 heartbeat IPC: 0.954758 cumulative IPC: 0.911887 (Simulation time: 1 hr 37 min 5 sec) 
Heartbeat CPU 0 instructions: 1180000001 cycles: 1135357630 heartbeat IPC: 0.721018 cumulative IPC: 0.90943 (Simulation time: 1 hr 38 min 2 sec) 
Heartbeat CPU 0 instructions: 1190000001 cycles: 1147750334 heartbeat IPC: 0.806926 cumulative IPC: 0.908265 (Simulation time: 1 hr 39 min 0 sec) 
Heartbeat CPU 0 instructions: 1200000001 cycles: 1159501536 heartbeat IPC: 0.850977 cumulative IPC: 0.907654 (Simulation time: 1 hr 39 min 50 sec) 
Finished CPU 0 instructions: 1000000003 cycles: 1101741414 cumulative IPC: 0.907654 (Simulation time: 1 hr 39 min 50 sec) 

ChampSim completed all CPUs

Region of Interest Statistics

CPU 0 cumulative IPC: 0.907654 instructions: 1000000003 cycles: 1101741414
cpu0_DTLB TOTAL     ACCESS:  158311099  HIT:  131275879  MISS:   27035220
cpu0_DTLB LOAD      ACCESS:  124693630  HIT:   98166309  MISS:   26527321
cpu0_DTLB RFO       ACCESS:   33617469  HIT:   33109570  MISS:     507899
cpu0_DTLB PREFETCH  ACCESS:          0  HIT:          0  MISS:          0
cpu0_DTLB WRITEBACK ACCESS:          0  HIT:          0  MISS:          0
cpu0_DTLB TRANSLATION ACCESS:          0  HIT:          0  MISS:          0
cpu0_DTLB PREFETCH  REQUESTED:          0  ISSUED:          0  USEFUL:          0  USELESS:          0
cpu0_DTLB AVERAGE MISS LATENCY: 9.51261 cycles
cpu0_ITLB TOTAL     ACCESS:   57540709  HIT:   57174920  MISS:     365789
cpu0_ITLB LOAD      ACCESS:   57540709  HIT:   57174920  MISS:     365789
cpu0_ITLB RFO       ACCESS:          0  HIT:          0  MISS:          0
cpu0_ITLB PREFETCH  ACCESS:          0  HIT:          0  MISS:          0
cpu0_ITLB WRITEBACK ACCESS:          0  HIT:          0  MISS:          0
cpu0_ITLB TRANSLATION ACCESS:          0  HIT:          0  MISS:          0
cpu0_ITLB PREFETCH  REQUESTED:          0  ISSUED:          0  USEFUL:          0  USELESS:          0
cpu0_ITLB AVERAGE MISS LATENCY: 9.53285 cycles
cpu0_L1I TOTAL     ACCESS:   45106653  HIT:   43558197  MISS:    1548456
cpu0_L1I LOAD      ACCESS:   45106653  HIT:   43558197  MISS:    1548456
cpu0_L1I RFO       ACCESS:          0  HIT:          0  MISS:          0
cpu0_L1I PREFETCH  ACCESS:          0  HIT:          0  MISS:          0
cpu0_L1I WRITEBACK ACCESS:          0  HIT:          0  MISS:          0
cpu0_L1I TRANSLATION ACCESS:          0  HIT:          0  MISS:          0
cpu0_L1I PREFETCH  REQUESTED:          0  ISSUED:          0  USEFUL:          0  USELESS:          0
cpu0_L1I AVERAGE MISS LATENCY: 15.0063 cycles
cpu0_STLB TOTAL     ACCESS:   27401009  HIT:   25859680  MISS:    1541329
cpu0_STLB LOAD      ACCESS:   26893110  HIT:   25398546  MISS:    1494564
cpu0_STLB RFO       ACCESS:     507899  HIT:     461134  MISS:      46765
cpu0_STLB PREFETCH  ACCESS:          0  HIT:          0  MISS:          0
cpu0_STLB WRITEBACK ACCESS:          0  HIT:          0  MISS:          0
cpu0_STLB TRANSLATION ACCESS:          0  HIT:          0  MISS:          0
cpu0_STLB PREFETCH  REQUESTED:          0  ISSUED:          0  USEFUL:          0  USELESS:          0
cpu0_STLB AVERAGE MISS LATENCY: 9.00512 cycles
cpu0_L1D TOTAL     ACCESS:  205837596  HIT:  159406106  MISS:   46431490
cpu0_L1D LOAD      ACCESS:  141981364  HIT:   97139257  MISS:   44842107
cpu0_L1D RFO       ACCESS:   62338807  HIT:   60839350  MISS:    1499457
cpu0_L1D PREFETCH  ACCESS:          0  HIT:          0  MISS:          0
cpu0_L1D WRITEBACK ACCESS:          0  HIT:          0  MISS:          0
cpu0_L1D TRANSLATION ACCESS:    1517425  HIT:    1427499  MISS:      89926
cpu0_L1D PREFETCH  REQUESTED:          0  ISSUED:          0  USEFUL:          0  USELESS:          0
cpu0_L1D AVERAGE MISS LATENCY: 17.9451 cycles
cpu0_L2C TOTAL     ACCESS:   83671131  HIT:   79611765  MISS:    4059366
cpu0_L2C LOAD      ACCESS:   46390438  HIT:   43937165  MISS:    2453273
cpu0_L2C RFO       ACCESS:    1499431  HIT:     260926  MISS:    1238505
cpu0_L2C PREFETCH  ACCESS:   33363336  HIT:   32996281  MISS:     367055
cpu0_L2C WRITEBACK ACCESS:    2328000  HIT:    2327942  MISS:         58
cpu0_L2C TRANSLATION ACCESS:      89926  HIT:      89451  MISS:        475
cpu0_L2C PREFETCH  REQUESTED:   57813363  ISSUED:   54271457  USEFUL:     197943  USELESS:     229971
cpu0_L2C AVERAGE MISS LATENCY: 82.1617 cycles
LLC TOTAL     ACCESS:   26003695  HIT:   24111762  MISS:    1891933
LLC LOAD      ACCESS:    2392776  HIT:    2159243  MISS:     233533
LLC RFO       ACCESS:    1238133  HIT:     145995  MISS:    1092138
LLC PREFETCH  ACCESS:   20865758  HIT:   20317195  MISS:     548563
LLC WRITEBACK ACCESS:    1506553  HIT:    1489018  MISS:      17535
LLC TRANSLATION ACCESS:        475  HIT:        311  MISS:        164
LLC PREFETCH  REQUESTED:          0  ISSUED:          0  USEFUL:          0  USELESS:          0
LLC AVERAGE MISS LATENCY: 243.688 cycles

DRAM Statistics
 CHANNEL 0
 RQ ROW_BUFFER_HIT:     612872  ROW_BUFFER_MISS:    1261467
 DBUS AVG_CONGESTED_CYCLE:    3.93939
 WQ ROW_BUFFER_HIT:     119757  ROW_BUFFER_MISS:    1185760  FULL:          0


CPU 0 Branch Prediction Accuracy: 97.1414% MPKI: 8.19974 Average ROB Occupancy at Mispredict: 37.5892
Branch type MPKI
BRANCH_DIRECT_JUMP: 2.5e-05
BRANCH_INDIRECT: 0.335423
BRANCH_CONDITIONAL: 6.54277
BRANCH_DIRECT_CALL: 0.000181
BRANCH_INDIRECT_CALL: 0.257476
BRANCH_RETURN: 1.06386

