Initialize SIGNATURE TABLE
ST_SET: 1
ST_WAY: 256
ST_TAG_BIT: 16
ST_TAG_MASK: ffff

Initialize PATTERN TABLE
PT_SET: 512
PT_WAY: 4
SIG_DELTA_BIT: 7
C_SIG_BIT: 4
C_DELTA_BIT: 4

Initialize PREFETCH FILTER
FILTER_SET: 1024

*** ChampSim Multicore Out-of-Order Simulator ***

Warmup Instructions: 200000000
Simulation Instructions: 1000000000
Number of CPUs: 1
Off-chip DRAM Size: 4 GiB Channels: 1 Width: 64-bit Data Rate: 3200 MT/s

VirtualMemory physical capacity: 8588881920 num_ppages: 2096895
VirtualMemory page size: 4096 log2_page_size: 12

CPU 0 runs /home/faculty/p/pgratz/dpc3_traces/600.perlbench_s-210B.champsimtrace.xz
CPU 0 Bimodal branch predictor
Basic BTB sets: 1024 ways: 8 indirect buffer size: 4096 RAS size: 64
WARNING: The extended signature CACHE::prefetch_line(ip, base_addr, pf_addr, fill_this_level, prefetch_metadata) is deprecated.
WARNING: Use CACHE::prefetch_line(pf_addr, fill_this_level, prefetch_metadata) instead.
Heartbeat CPU 0 instructions: 10000003 cycles: 2511542 heartbeat IPC: 3.98162 cumulative IPC: 3.98162 (Simulation time: 0 hr 0 min 31 sec) 
Heartbeat CPU 0 instructions: 20000003 cycles: 5011542 heartbeat IPC: 4 cumulative IPC: 3.99079 (Simulation time: 0 hr 1 min 4 sec) 
Heartbeat CPU 0 instructions: 30000003 cycles: 7511542 heartbeat IPC: 4 cumulative IPC: 3.99385 (Simulation time: 0 hr 1 min 37 sec) 
Heartbeat CPU 0 instructions: 40000001 cycles: 10012004 heartbeat IPC: 3.99926 cumulative IPC: 3.9952 (Simulation time: 0 hr 2 min 10 sec) 
Heartbeat CPU 0 instructions: 50000003 cycles: 12512590 heartbeat IPC: 3.99906 cumulative IPC: 3.99598 (Simulation time: 0 hr 2 min 42 sec) 
Heartbeat CPU 0 instructions: 60000000 cycles: 15013119 heartbeat IPC: 3.99915 cumulative IPC: 3.9965 (Simulation time: 0 hr 3 min 15 sec) 
Heartbeat CPU 0 instructions: 70000000 cycles: 17513119 heartbeat IPC: 4 cumulative IPC: 3.997 (Simulation time: 0 hr 3 min 49 sec) 
Heartbeat CPU 0 instructions: 80000000 cycles: 20013119 heartbeat IPC: 4 cumulative IPC: 3.99738 (Simulation time: 0 hr 4 min 22 sec) 
Heartbeat CPU 0 instructions: 90000000 cycles: 22521361 heartbeat IPC: 3.98686 cumulative IPC: 3.99621 (Simulation time: 0 hr 4 min 53 sec) 
Heartbeat CPU 0 instructions: 100000000 cycles: 25022576 heartbeat IPC: 3.99806 cumulative IPC: 3.99639 (Simulation time: 0 hr 5 min 26 sec) 
Heartbeat CPU 0 instructions: 110000000 cycles: 27522576 heartbeat IPC: 4 cumulative IPC: 3.99672 (Simulation time: 0 hr 5 min 59 sec) 
Heartbeat CPU 0 instructions: 120000000 cycles: 30022576 heartbeat IPC: 4 cumulative IPC: 3.99699 (Simulation time: 0 hr 6 min 33 sec) 
Heartbeat CPU 0 instructions: 130000002 cycles: 32523265 heartbeat IPC: 3.9989 cumulative IPC: 3.99714 (Simulation time: 0 hr 7 min 5 sec) 
Heartbeat CPU 0 instructions: 140000001 cycles: 35023535 heartbeat IPC: 3.99957 cumulative IPC: 3.99731 (Simulation time: 0 hr 7 min 38 sec) 
Heartbeat CPU 0 instructions: 150000002 cycles: 37523876 heartbeat IPC: 3.99945 cumulative IPC: 3.99745 (Simulation time: 0 hr 8 min 11 sec) 
Heartbeat CPU 0 instructions: 160000002 cycles: 40023876 heartbeat IPC: 4 cumulative IPC: 3.99761 (Simulation time: 0 hr 8 min 44 sec) 
Heartbeat CPU 0 instructions: 170000003 cycles: 42525251 heartbeat IPC: 3.9978 cumulative IPC: 3.99762 (Simulation time: 0 hr 9 min 16 sec) 
Heartbeat CPU 0 instructions: 180000003 cycles: 45025251 heartbeat IPC: 4 cumulative IPC: 3.99776 (Simulation time: 0 hr 9 min 50 sec) 
Heartbeat CPU 0 instructions: 190000003 cycles: 47525251 heartbeat IPC: 4 cumulative IPC: 3.99787 (Simulation time: 0 hr 10 min 23 sec) 
Heartbeat CPU 0 instructions: 200000003 cycles: 50026107 heartbeat IPC: 3.99863 cumulative IPC: 3.99791 (Simulation time: 0 hr 10 min 55 sec) 

Warmup complete CPU 0 instructions: 200000003 cycles: 50026107 (Simulation time: 0 hr 10 min 55 sec) 

Heartbeat CPU 0 instructions: 210000003 cycles: 55343267 heartbeat IPC: 1.8807 cumulative IPC: 1.8807 (Simulation time: 0 hr 11 min 37 sec) 
Heartbeat CPU 0 instructions: 220000003 cycles: 60712511 heartbeat IPC: 1.86246 cumulative IPC: 1.87154 (Simulation time: 0 hr 12 min 19 sec) 
Heartbeat CPU 0 instructions: 230000003 cycles: 66028694 heartbeat IPC: 1.88105 cumulative IPC: 1.8747 (Simulation time: 0 hr 13 min 2 sec) 
Heartbeat CPU 0 instructions: 240000004 cycles: 71254726 heartbeat IPC: 1.9135 cumulative IPC: 1.88425 (Simulation time: 0 hr 13 min 45 sec) 
Heartbeat CPU 0 instructions: 250000004 cycles: 76188451 heartbeat IPC: 2.02687 cumulative IPC: 1.91114 (Simulation time: 0 hr 14 min 23 sec) 
Heartbeat CPU 0 instructions: 260000001 cycles: 81350942 heartbeat IPC: 1.93705 cumulative IPC: 1.91541 (Simulation time: 0 hr 15 min 5 sec) 
Heartbeat CPU 0 instructions: 270000002 cycles: 86644330 heartbeat IPC: 1.88915 cumulative IPC: 1.91162 (Simulation time: 0 hr 15 min 46 sec) 
Heartbeat CPU 0 instructions: 280000003 cycles: 92092206 heartbeat IPC: 1.83558 cumulative IPC: 1.90177 (Simulation time: 0 hr 16 min 26 sec) 
Heartbeat CPU 0 instructions: 290000000 cycles: 97310545 heartbeat IPC: 1.91632 cumulative IPC: 1.90337 (Simulation time: 0 hr 17 min 7 sec) 
Heartbeat CPU 0 instructions: 300000003 cycles: 102822764 heartbeat IPC: 1.81415 cumulative IPC: 1.89406 (Simulation time: 0 hr 17 min 50 sec) 
Heartbeat CPU 0 instructions: 310000002 cycles: 108165036 heartbeat IPC: 1.87186 cumulative IPC: 1.89202 (Simulation time: 0 hr 18 min 32 sec) 
Heartbeat CPU 0 instructions: 320000001 cycles: 113354555 heartbeat IPC: 1.92696 cumulative IPC: 1.89488 (Simulation time: 0 hr 19 min 13 sec) 
Heartbeat CPU 0 instructions: 330000004 cycles: 118531971 heartbeat IPC: 1.93147 cumulative IPC: 1.89765 (Simulation time: 0 hr 19 min 52 sec) 
Heartbeat CPU 0 instructions: 340000002 cycles: 123908249 heartbeat IPC: 1.86002 cumulative IPC: 1.89491 (Simulation time: 0 hr 20 min 31 sec) 
Heartbeat CPU 0 instructions: 350000003 cycles: 129396606 heartbeat IPC: 1.82204 cumulative IPC: 1.88987 (Simulation time: 0 hr 21 min 9 sec) 
Heartbeat CPU 0 instructions: 360000002 cycles: 134641859 heartbeat IPC: 1.90649 cumulative IPC: 1.8909 (Simulation time: 0 hr 21 min 52 sec) 
Heartbeat CPU 0 instructions: 370000001 cycles: 140071234 heartbeat IPC: 1.84183 cumulative IPC: 1.88794 (Simulation time: 0 hr 22 min 31 sec) 
Heartbeat CPU 0 instructions: 380000003 cycles: 145475211 heartbeat IPC: 1.85049 cumulative IPC: 1.88582 (Simulation time: 0 hr 23 min 12 sec) 
Heartbeat CPU 0 instructions: 390000000 cycles: 150805514 heartbeat IPC: 1.87607 cumulative IPC: 1.88531 (Simulation time: 0 hr 23 min 54 sec) 
Heartbeat CPU 0 instructions: 400000001 cycles: 155984855 heartbeat IPC: 1.93075 cumulative IPC: 1.88753 (Simulation time: 0 hr 24 min 36 sec) 
Heartbeat CPU 0 instructions: 410000000 cycles: 160935365 heartbeat IPC: 2.01999 cumulative IPC: 1.89344 (Simulation time: 0 hr 25 min 13 sec) 
Heartbeat CPU 0 instructions: 420000001 cycles: 166142151 heartbeat IPC: 1.92057 cumulative IPC: 1.89466 (Simulation time: 0 hr 25 min 52 sec) 
Heartbeat CPU 0 instructions: 430000000 cycles: 171819586 heartbeat IPC: 1.76136 cumulative IPC: 1.88844 (Simulation time: 0 hr 26 min 28 sec) 
Heartbeat CPU 0 instructions: 440000000 cycles: 177204295 heartbeat IPC: 1.85711 cumulative IPC: 1.88712 (Simulation time: 0 hr 27 min 8 sec) 
Heartbeat CPU 0 instructions: 450000001 cycles: 182593288 heartbeat IPC: 1.85563 cumulative IPC: 1.88584 (Simulation time: 0 hr 27 min 46 sec) 
Heartbeat CPU 0 instructions: 460000000 cycles: 188047576 heartbeat IPC: 1.83342 cumulative IPC: 1.88376 (Simulation time: 0 hr 28 min 28 sec) 
Heartbeat CPU 0 instructions: 470000001 cycles: 196392195 heartbeat IPC: 1.19838 cumulative IPC: 1.84469 (Simulation time: 0 hr 29 min 10 sec) 
Heartbeat CPU 0 instructions: 480000002 cycles: 204292297 heartbeat IPC: 1.26581 cumulative IPC: 1.81504 (Simulation time: 0 hr 29 min 50 sec) 
Heartbeat CPU 0 instructions: 490000001 cycles: 210332937 heartbeat IPC: 1.65545 cumulative IPC: 1.80903 (Simulation time: 0 hr 30 min 28 sec) 
Heartbeat CPU 0 instructions: 500000003 cycles: 216831687 heartbeat IPC: 1.53876 cumulative IPC: 1.7985 (Simulation time: 0 hr 31 min 6 sec) 
Heartbeat CPU 0 instructions: 510000001 cycles: 226150886 heartbeat IPC: 1.07305 cumulative IPC: 1.76012 (Simulation time: 0 hr 31 min 44 sec) 
Heartbeat CPU 0 instructions: 520000000 cycles: 239707461 heartbeat IPC: 0.737649 cumulative IPC: 1.68704 (Simulation time: 0 hr 32 min 29 sec) 
Heartbeat CPU 0 instructions: 530000003 cycles: 252495628 heartbeat IPC: 0.781973 cumulative IPC: 1.62987 (Simulation time: 0 hr 33 min 11 sec) 
Heartbeat CPU 0 instructions: 540000001 cycles: 263179521 heartbeat IPC: 0.935988 cumulative IPC: 1.5951 (Simulation time: 0 hr 33 min 53 sec) 
Heartbeat CPU 0 instructions: 550000002 cycles: 276270190 heartbeat IPC: 0.763903 cumulative IPC: 1.547 (Simulation time: 0 hr 34 min 38 sec) 
Heartbeat CPU 0 instructions: 560000000 cycles: 282317372 heartbeat IPC: 1.65366 cumulative IPC: 1.54978 (Simulation time: 0 hr 35 min 19 sec) 
Heartbeat CPU 0 instructions: 570000000 cycles: 288192030 heartbeat IPC: 1.70223 cumulative IPC: 1.55354 (Simulation time: 0 hr 35 min 59 sec) 
Heartbeat CPU 0 instructions: 580000000 cycles: 294258774 heartbeat IPC: 1.64833 cumulative IPC: 1.55589 (Simulation time: 0 hr 36 min 41 sec) 
Heartbeat CPU 0 instructions: 590000001 cycles: 300303266 heartbeat IPC: 1.6544 cumulative IPC: 1.55827 (Simulation time: 0 hr 37 min 23 sec) 
Heartbeat CPU 0 instructions: 600000000 cycles: 310200457 heartbeat IPC: 1.01039 cumulative IPC: 1.53743 (Simulation time: 0 hr 38 min 6 sec) 
Heartbeat CPU 0 instructions: 610000000 cycles: 322388538 heartbeat IPC: 0.820474 cumulative IPC: 1.50535 (Simulation time: 0 hr 38 min 51 sec) 
Heartbeat CPU 0 instructions: 620000001 cycles: 335042394 heartbeat IPC: 0.790273 cumulative IPC: 1.4736 (Simulation time: 0 hr 39 min 35 sec) 
Heartbeat CPU 0 instructions: 630000002 cycles: 344324281 heartbeat IPC: 1.07737 cumulative IPC: 1.4611 (Simulation time: 0 hr 40 min 20 sec) 
Heartbeat CPU 0 instructions: 640000000 cycles: 354397250 heartbeat IPC: 0.992756 cumulative IPC: 1.4456 (Simulation time: 0 hr 41 min 6 sec) 
Heartbeat CPU 0 instructions: 650000000 cycles: 367037419 heartbeat IPC: 0.791129 cumulative IPC: 1.41951 (Simulation time: 0 hr 41 min 51 sec) 
Heartbeat CPU 0 instructions: 660000000 cycles: 379144496 heartbeat IPC: 0.825963 cumulative IPC: 1.39767 (Simulation time: 0 hr 42 min 34 sec) 
Heartbeat CPU 0 instructions: 670000003 cycles: 386883919 heartbeat IPC: 1.29209 cumulative IPC: 1.39525 (Simulation time: 0 hr 43 min 18 sec) 
Heartbeat CPU 0 instructions: 680000000 cycles: 400729253 heartbeat IPC: 0.722265 cumulative IPC: 1.36868 (Simulation time: 0 hr 44 min 6 sec) 
Heartbeat CPU 0 instructions: 690000001 cycles: 413272178 heartbeat IPC: 0.797262 cumulative IPC: 1.34895 (Simulation time: 0 hr 44 min 51 sec) 
Heartbeat CPU 0 instructions: 700000000 cycles: 418325031 heartbeat IPC: 1.97908 cumulative IPC: 1.35759 (Simulation time: 0 hr 45 min 34 sec) 
Heartbeat CPU 0 instructions: 710000003 cycles: 423692183 heartbeat IPC: 1.86319 cumulative IPC: 1.36485 (Simulation time: 0 hr 46 min 13 sec) 
Heartbeat CPU 0 instructions: 720000003 cycles: 429113141 heartbeat IPC: 1.84469 cumulative IPC: 1.37172 (Simulation time: 0 hr 46 min 52 sec) 
Heartbeat CPU 0 instructions: 730000001 cycles: 434337469 heartbeat IPC: 1.91412 cumulative IPC: 1.37909 (Simulation time: 0 hr 47 min 31 sec) 
Heartbeat CPU 0 instructions: 740000002 cycles: 439445379 heartbeat IPC: 1.95775 cumulative IPC: 1.38668 (Simulation time: 0 hr 48 min 11 sec) 
Heartbeat CPU 0 instructions: 750000001 cycles: 444529491 heartbeat IPC: 1.96691 cumulative IPC: 1.39416 (Simulation time: 0 hr 48 min 53 sec) 
Heartbeat CPU 0 instructions: 760000001 cycles: 449705567 heartbeat IPC: 1.93197 cumulative IPC: 1.40112 (Simulation time: 0 hr 49 min 35 sec) 
Heartbeat CPU 0 instructions: 770000002 cycles: 454852913 heartbeat IPC: 1.94275 cumulative IPC: 1.40801 (Simulation time: 0 hr 50 min 17 sec) 
Heartbeat CPU 0 instructions: 780000002 cycles: 460256929 heartbeat IPC: 1.85048 cumulative IPC: 1.41384 (Simulation time: 0 hr 50 min 57 sec) 
Heartbeat CPU 0 instructions: 790000000 cycles: 465399021 heartbeat IPC: 1.94473 cumulative IPC: 1.42041 (Simulation time: 0 hr 51 min 38 sec) 
Heartbeat CPU 0 instructions: 800000004 cycles: 470742342 heartbeat IPC: 1.8715 cumulative IPC: 1.42614 (Simulation time: 0 hr 52 min 18 sec) 
Heartbeat CPU 0 instructions: 810000001 cycles: 475725140 heartbeat IPC: 2.0069 cumulative IPC: 1.43294 (Simulation time: 0 hr 53 min 0 sec) 
Heartbeat CPU 0 instructions: 820000002 cycles: 480633349 heartbeat IPC: 2.0374 cumulative IPC: 1.43983 (Simulation time: 0 hr 53 min 35 sec) 
Heartbeat CPU 0 instructions: 830000004 cycles: 485528107 heartbeat IPC: 2.043 cumulative IPC: 1.44661 (Simulation time: 0 hr 54 min 10 sec) 
Heartbeat CPU 0 instructions: 840000003 cycles: 490560022 heartbeat IPC: 1.98731 cumulative IPC: 1.45278 (Simulation time: 0 hr 54 min 50 sec) 
Heartbeat CPU 0 instructions: 850000002 cycles: 495856235 heartbeat IPC: 1.88814 cumulative IPC: 1.45795 (Simulation time: 0 hr 55 min 30 sec) 
Heartbeat CPU 0 instructions: 860000000 cycles: 501204536 heartbeat IPC: 1.86975 cumulative IPC: 1.46284 (Simulation time: 0 hr 56 min 9 sec) 
Heartbeat CPU 0 instructions: 870000004 cycles: 506636970 heartbeat IPC: 1.8408 cumulative IPC: 1.46733 (Simulation time: 0 hr 56 min 49 sec) 
Heartbeat CPU 0 instructions: 880000001 cycles: 511829533 heartbeat IPC: 1.92583 cumulative IPC: 1.47249 (Simulation time: 0 hr 57 min 31 sec) 
Heartbeat CPU 0 instructions: 890000001 cycles: 517083681 heartbeat IPC: 1.90326 cumulative IPC: 1.47733 (Simulation time: 0 hr 58 min 13 sec) 
Heartbeat CPU 0 instructions: 900000001 cycles: 522154683 heartbeat IPC: 1.972 cumulative IPC: 1.48265 (Simulation time: 0 hr 58 min 54 sec) 
Heartbeat CPU 0 instructions: 910000002 cycles: 527503295 heartbeat IPC: 1.86964 cumulative IPC: 1.48698 (Simulation time: 0 hr 59 min 32 sec) 
Heartbeat CPU 0 instructions: 920000001 cycles: 532943807 heartbeat IPC: 1.83806 cumulative IPC: 1.49094 (Simulation time: 1 hr 0 min 11 sec) 
Heartbeat CPU 0 instructions: 930000002 cycles: 538103430 heartbeat IPC: 1.93813 cumulative IPC: 1.49566 (Simulation time: 1 hr 0 min 50 sec) 
Heartbeat CPU 0 instructions: 940000002 cycles: 543651671 heartbeat IPC: 1.80237 cumulative IPC: 1.49911 (Simulation time: 1 hr 1 min 29 sec) 
Heartbeat CPU 0 instructions: 950000003 cycles: 549301985 heartbeat IPC: 1.76981 cumulative IPC: 1.50218 (Simulation time: 1 hr 2 min 11 sec) 
Heartbeat CPU 0 instructions: 960000000 cycles: 554293223 heartbeat IPC: 2.00351 cumulative IPC: 1.50714 (Simulation time: 1 hr 2 min 54 sec) 
Heartbeat CPU 0 instructions: 970000000 cycles: 559332833 heartbeat IPC: 1.98428 cumulative IPC: 1.51186 (Simulation time: 1 hr 3 min 36 sec) 
Heartbeat CPU 0 instructions: 980000000 cycles: 564744639 heartbeat IPC: 1.84781 cumulative IPC: 1.51539 (Simulation time: 1 hr 4 min 17 sec) 
Heartbeat CPU 0 instructions: 990000004 cycles: 569800932 heartbeat IPC: 1.97773 cumulative IPC: 1.51989 (Simulation time: 1 hr 5 min 0 sec) 
Heartbeat CPU 0 instructions: 1000000000 cycles: 574873891 heartbeat IPC: 1.97124 cumulative IPC: 1.52425 (Simulation time: 1 hr 5 min 41 sec) 
Heartbeat CPU 0 instructions: 1010000002 cycles: 579645400 heartbeat IPC: 2.09577 cumulative IPC: 1.5294 (Simulation time: 1 hr 6 min 20 sec) 
Heartbeat CPU 0 instructions: 1020000004 cycles: 584549043 heartbeat IPC: 2.0393 cumulative IPC: 1.53408 (Simulation time: 1 hr 7 min 3 sec) 
Heartbeat CPU 0 instructions: 1030000000 cycles: 589910774 heartbeat IPC: 1.86507 cumulative IPC: 1.53737 (Simulation time: 1 hr 7 min 43 sec) 
Heartbeat CPU 0 instructions: 1040000001 cycles: 595128823 heartbeat IPC: 1.91643 cumulative IPC: 1.54099 (Simulation time: 1 hr 8 min 24 sec) 
Heartbeat CPU 0 instructions: 1050000000 cycles: 600171259 heartbeat IPC: 1.98317 cumulative IPC: 1.54505 (Simulation time: 1 hr 9 min 6 sec) 
Heartbeat CPU 0 instructions: 1060000002 cycles: 605412336 heartbeat IPC: 1.90801 cumulative IPC: 1.54847 (Simulation time: 1 hr 9 min 50 sec) 
Heartbeat CPU 0 instructions: 1070000000 cycles: 610500872 heartbeat IPC: 1.9652 cumulative IPC: 1.55226 (Simulation time: 1 hr 10 min 32 sec) 
Heartbeat CPU 0 instructions: 1080000004 cycles: 615420045 heartbeat IPC: 2.03286 cumulative IPC: 1.55644 (Simulation time: 1 hr 11 min 12 sec) 
Heartbeat CPU 0 instructions: 1090000000 cycles: 620660206 heartbeat IPC: 1.90834 cumulative IPC: 1.55967 (Simulation time: 1 hr 11 min 53 sec) 
Heartbeat CPU 0 instructions: 1100000000 cycles: 626251396 heartbeat IPC: 1.78853 cumulative IPC: 1.56189 (Simulation time: 1 hr 12 min 31 sec) 
Heartbeat CPU 0 instructions: 1110000000 cycles: 631199198 heartbeat IPC: 2.0211 cumulative IPC: 1.5658 (Simulation time: 1 hr 13 min 13 sec) 
Heartbeat CPU 0 instructions: 1120000001 cycles: 636330227 heartbeat IPC: 1.94893 cumulative IPC: 1.56915 (Simulation time: 1 hr 13 min 55 sec) 
Heartbeat CPU 0 instructions: 1130000002 cycles: 641766824 heartbeat IPC: 1.83939 cumulative IPC: 1.57163 (Simulation time: 1 hr 14 min 33 sec) 
Heartbeat CPU 0 instructions: 1140000003 cycles: 646975610 heartbeat IPC: 1.91983 cumulative IPC: 1.57467 (Simulation time: 1 hr 15 min 15 sec) 
Heartbeat CPU 0 instructions: 1150000000 cycles: 652028826 heartbeat IPC: 1.97894 cumulative IPC: 1.57807 (Simulation time: 1 hr 15 min 58 sec) 
Heartbeat CPU 0 instructions: 1160000001 cycles: 656950041 heartbeat IPC: 2.03202 cumulative IPC: 1.58175 (Simulation time: 1 hr 16 min 39 sec) 
Heartbeat CPU 0 instructions: 1170000000 cycles: 661893264 heartbeat IPC: 2.02297 cumulative IPC: 1.58531 (Simulation time: 1 hr 17 min 20 sec) 
Heartbeat CPU 0 instructions: 1180000000 cycles: 667347073 heartbeat IPC: 1.83358 cumulative IPC: 1.5875 (Simulation time: 1 hr 17 min 58 sec) 
Heartbeat CPU 0 instructions: 1190000000 cycles: 672572737 heartbeat IPC: 1.91363 cumulative IPC: 1.59024 (Simulation time: 1 hr 18 min 39 sec) 
Heartbeat CPU 0 instructions: 1200000000 cycles: 677971421 heartbeat IPC: 1.8523 cumulative IPC: 1.5925 (Simulation time: 1 hr 19 min 18 sec) 
Finished CPU 0 instructions: 1000000001 cycles: 627945315 cumulative IPC: 1.5925 (Simulation time: 1 hr 19 min 18 sec) 

ChampSim completed all CPUs

Region of Interest Statistics

CPU 0 cumulative IPC: 1.5925 instructions: 1000000001 cycles: 627945315
cpu0_DTLB TOTAL     ACCESS:  184712704  HIT:  183662221  MISS:    1050483
cpu0_DTLB LOAD      ACCESS:  102728674  HIT:  101776677  MISS:     951997
cpu0_DTLB RFO       ACCESS:   81984030  HIT:   81885544  MISS:      98486
cpu0_DTLB PREFETCH  ACCESS:          0  HIT:          0  MISS:          0
cpu0_DTLB WRITEBACK ACCESS:          0  HIT:          0  MISS:          0
cpu0_DTLB TRANSLATION ACCESS:          0  HIT:          0  MISS:          0
cpu0_DTLB PREFETCH  REQUESTED:          0  ISSUED:          0  USEFUL:          0  USELESS:          0
cpu0_DTLB AVERAGE MISS LATENCY: 10.2004 cycles
cpu0_ITLB TOTAL     ACCESS:   72543531  HIT:   72425102  MISS:     118429
cpu0_ITLB LOAD      ACCESS:   72543531  HIT:   72425102  MISS:     118429
cpu0_ITLB RFO       ACCESS:          0  HIT:          0  MISS:          0
cpu0_ITLB PREFETCH  ACCESS:          0  HIT:          0  MISS:          0
cpu0_ITLB WRITEBACK ACCESS:          0  HIT:          0  MISS:          0
cpu0_ITLB TRANSLATION ACCESS:          0  HIT:          0  MISS:          0
cpu0_ITLB PREFETCH  REQUESTED:          0  ISSUED:          0  USEFUL:          0  USELESS:          0
cpu0_ITLB AVERAGE MISS LATENCY: 9.42316 cycles
cpu0_L1I TOTAL     ACCESS:   56445988  HIT:   54882876  MISS:    1563112
cpu0_L1I LOAD      ACCESS:   56445988  HIT:   54882876  MISS:    1563112
cpu0_L1I RFO       ACCESS:          0  HIT:          0  MISS:          0
cpu0_L1I PREFETCH  ACCESS:          0  HIT:          0  MISS:          0
cpu0_L1I WRITEBACK ACCESS:          0  HIT:          0  MISS:          0
cpu0_L1I TRANSLATION ACCESS:          0  HIT:          0  MISS:          0
cpu0_L1I PREFETCH  REQUESTED:          0  ISSUED:          0  USEFUL:          0  USELESS:          0
cpu0_L1I AVERAGE MISS LATENCY: 13.2373 cycles
cpu0_STLB TOTAL     ACCESS:    1168912  HIT:    1135639  MISS:      33273
cpu0_STLB LOAD      ACCESS:    1070426  HIT:    1040916  MISS:      29510
cpu0_STLB RFO       ACCESS:      98486  HIT:      94723  MISS:       3763
cpu0_STLB PREFETCH  ACCESS:          0  HIT:          0  MISS:          0
cpu0_STLB WRITEBACK ACCESS:          0  HIT:          0  MISS:          0
cpu0_STLB TRANSLATION ACCESS:          0  HIT:          0  MISS:          0
cpu0_STLB PREFETCH  REQUESTED:          0  ISSUED:          0  USEFUL:          0  USELESS:          0
cpu0_STLB AVERAGE MISS LATENCY: 38.817 cycles
cpu0_L1D TOTAL     ACCESS:  330423330  HIT:  329359339  MISS:    1063991
cpu0_L1D LOAD      ACCESS:  122669174  HIT:  121689428  MISS:     979746
cpu0_L1D RFO       ACCESS:  207721039  HIT:  207640161  MISS:      80878
cpu0_L1D PREFETCH  ACCESS:          0  HIT:          0  MISS:          0
cpu0_L1D WRITEBACK ACCESS:          0  HIT:          0  MISS:          0
cpu0_L1D TRANSLATION ACCESS:      33117  HIT:      29750  MISS:       3367
cpu0_L1D PREFETCH  REQUESTED:          0  ISSUED:          0  USEFUL:          0  USELESS:          0
cpu0_L1D AVERAGE MISS LATENCY: 53.8793 cycles
cpu0_L2C TOTAL     ACCESS:    4290582  HIT:    3848579  MISS:     442003
cpu0_L2C LOAD      ACCESS:    2542781  HIT:    2133845  MISS:     408936
cpu0_L2C RFO       ACCESS:      80874  HIT:      52441  MISS:      28433
cpu0_L2C PREFETCH  ACCESS:    1401904  HIT:    1398633  MISS:       3271
cpu0_L2C WRITEBACK ACCESS:     261656  HIT:     260581  MISS:       1075
cpu0_L2C TRANSLATION ACCESS:       3367  HIT:       3079  MISS:        288
cpu0_L2C PREFETCH  REQUESTED:    2201673  ISSUED:    2109375  USEFUL:       3350  USELESS:        323
cpu0_L2C AVERAGE MISS LATENCY: 111.178 cycles
LLC TOTAL     ACCESS:    1194683  HIT:     761625  MISS:     433058
LLC LOAD      ACCESS:     408532  HIT:     173384  MISS:     235148
LLC RFO       ACCESS:      28432  HIT:       8535  MISS:      19897
LLC PREFETCH  ACCESS:     666313  HIT:     490070  MISS:     176243
LLC WRITEBACK ACCESS:      91118  HIT:      89423  MISS:       1695
LLC TRANSLATION ACCESS:        288  HIT:        213  MISS:         75
LLC PREFETCH  REQUESTED:          0  ISSUED:          0  USEFUL:          0  USELESS:          0
LLC AVERAGE MISS LATENCY: 155.963 cycles

DRAM Statistics
 CHANNEL 0
 RQ ROW_BUFFER_HIT:      47969  ROW_BUFFER_MISS:     383394
 DBUS AVG_CONGESTED_CYCLE:    3.61851
 WQ ROW_BUFFER_HIT:      31648  ROW_BUFFER_MISS:      33148  FULL:          0


CPU 0 Branch Prediction Accuracy: 96.6639% MPKI: 4.95919 Average ROB Occupancy at Mispredict: 104.196
Branch type MPKI
BRANCH_DIRECT_JUMP: 0.001678
BRANCH_INDIRECT: 0.310558
BRANCH_CONDITIONAL: 4.50517
BRANCH_DIRECT_CALL: 0.001795
BRANCH_INDIRECT_CALL: 0.134027
BRANCH_RETURN: 0.005954

