Initialize SIGNATURE TABLE
ST_SET: 1
ST_WAY: 256
ST_TAG_BIT: 16
ST_TAG_MASK: ffff

Initialize PATTERN TABLE
PT_SET: 512
PT_WAY: 4
SIG_DELTA_BIT: 7
C_SIG_BIT: 4
C_DELTA_BIT: 4

Initialize PREFETCH FILTER
FILTER_SET: 1024

*** ChampSim Multicore Out-of-Order Simulator ***

Warmup Instructions: 200000000
Simulation Instructions: 1000000000
Number of CPUs: 1
Off-chip DRAM Size: 4 GiB Channels: 1 Width: 64-bit Data Rate: 3200 MT/s

VirtualMemory physical capacity: 8588881920 num_ppages: 2096895
VirtualMemory page size: 4096 log2_page_size: 12

CPU 0 runs /home/faculty/p/pgratz/dpc3_traces/631.deepsjeng_s-928B.champsimtrace.xz
CPU 0 Bimodal branch predictor
Basic BTB sets: 1024 ways: 8 indirect buffer size: 4096 RAS size: 64
WARNING: The extended signature CACHE::prefetch_line(ip, base_addr, pf_addr, fill_this_level, prefetch_metadata) is deprecated.
WARNING: Use CACHE::prefetch_line(pf_addr, fill_this_level, prefetch_metadata) instead.
Heartbeat CPU 0 instructions: 10000002 cycles: 2500176 heartbeat IPC: 3.99972 cumulative IPC: 3.99972 (Simulation time: 0 hr 0 min 31 sec) 
Heartbeat CPU 0 instructions: 20000002 cycles: 5000176 heartbeat IPC: 4 cumulative IPC: 3.99986 (Simulation time: 0 hr 1 min 2 sec) 
Heartbeat CPU 0 instructions: 30000002 cycles: 7500176 heartbeat IPC: 4 cumulative IPC: 3.99991 (Simulation time: 0 hr 1 min 34 sec) 
Heartbeat CPU 0 instructions: 40000002 cycles: 10000176 heartbeat IPC: 4 cumulative IPC: 3.99993 (Simulation time: 0 hr 2 min 5 sec) 
Heartbeat CPU 0 instructions: 50000002 cycles: 12500176 heartbeat IPC: 4 cumulative IPC: 3.99994 (Simulation time: 0 hr 2 min 37 sec) 
Heartbeat CPU 0 instructions: 60000002 cycles: 15000176 heartbeat IPC: 4 cumulative IPC: 3.99995 (Simulation time: 0 hr 3 min 8 sec) 
Heartbeat CPU 0 instructions: 70000002 cycles: 17500176 heartbeat IPC: 4 cumulative IPC: 3.99996 (Simulation time: 0 hr 3 min 39 sec) 
Heartbeat CPU 0 instructions: 80000002 cycles: 20000176 heartbeat IPC: 4 cumulative IPC: 3.99996 (Simulation time: 0 hr 4 min 10 sec) 
Heartbeat CPU 0 instructions: 90000002 cycles: 22500176 heartbeat IPC: 4 cumulative IPC: 3.99997 (Simulation time: 0 hr 4 min 42 sec) 
Heartbeat CPU 0 instructions: 100000002 cycles: 25000183 heartbeat IPC: 3.99999 cumulative IPC: 3.99997 (Simulation time: 0 hr 5 min 13 sec) 
Heartbeat CPU 0 instructions: 110000002 cycles: 27500183 heartbeat IPC: 4 cumulative IPC: 3.99997 (Simulation time: 0 hr 5 min 44 sec) 
Heartbeat CPU 0 instructions: 120000002 cycles: 30000183 heartbeat IPC: 4 cumulative IPC: 3.99998 (Simulation time: 0 hr 6 min 15 sec) 
Heartbeat CPU 0 instructions: 130000002 cycles: 32500183 heartbeat IPC: 4 cumulative IPC: 3.99998 (Simulation time: 0 hr 6 min 47 sec) 
Heartbeat CPU 0 instructions: 140000002 cycles: 35000183 heartbeat IPC: 4 cumulative IPC: 3.99998 (Simulation time: 0 hr 7 min 18 sec) 
Heartbeat CPU 0 instructions: 150000002 cycles: 37500183 heartbeat IPC: 4 cumulative IPC: 3.99998 (Simulation time: 0 hr 7 min 49 sec) 
Heartbeat CPU 0 instructions: 160000002 cycles: 40000183 heartbeat IPC: 4 cumulative IPC: 3.99998 (Simulation time: 0 hr 8 min 20 sec) 
Heartbeat CPU 0 instructions: 170000002 cycles: 42500183 heartbeat IPC: 4 cumulative IPC: 3.99998 (Simulation time: 0 hr 8 min 52 sec) 
Heartbeat CPU 0 instructions: 180000000 cycles: 45000184 heartbeat IPC: 4 cumulative IPC: 3.99998 (Simulation time: 0 hr 9 min 23 sec) 
Heartbeat CPU 0 instructions: 190000003 cycles: 47500200 heartbeat IPC: 3.99998 cumulative IPC: 3.99998 (Simulation time: 0 hr 9 min 55 sec) 
Heartbeat CPU 0 instructions: 200000003 cycles: 50000200 heartbeat IPC: 4 cumulative IPC: 3.99998 (Simulation time: 0 hr 10 min 26 sec) 

Warmup complete CPU 0 instructions: 200000003 cycles: 50000200 (Simulation time: 0 hr 10 min 26 sec) 

Heartbeat CPU 0 instructions: 210000000 cycles: 57888098 heartbeat IPC: 1.26776 cumulative IPC: 1.26776 (Simulation time: 0 hr 11 min 1 sec) 
Heartbeat CPU 0 instructions: 220000003 cycles: 65990089 heartbeat IPC: 1.23426 cumulative IPC: 1.25079 (Simulation time: 0 hr 11 min 35 sec) 
Heartbeat CPU 0 instructions: 230000001 cycles: 74001180 heartbeat IPC: 1.24827 cumulative IPC: 1.24995 (Simulation time: 0 hr 12 min 9 sec) 
Heartbeat CPU 0 instructions: 240000003 cycles: 81966614 heartbeat IPC: 1.25542 cumulative IPC: 1.25131 (Simulation time: 0 hr 12 min 43 sec) 
Heartbeat CPU 0 instructions: 250000000 cycles: 89856944 heartbeat IPC: 1.26737 cumulative IPC: 1.25449 (Simulation time: 0 hr 13 min 17 sec) 
Heartbeat CPU 0 instructions: 260000000 cycles: 97810602 heartbeat IPC: 1.25728 cumulative IPC: 1.25496 (Simulation time: 0 hr 13 min 51 sec) 
Heartbeat CPU 0 instructions: 270000002 cycles: 105744399 heartbeat IPC: 1.26043 cumulative IPC: 1.25574 (Simulation time: 0 hr 14 min 25 sec) 
Heartbeat CPU 0 instructions: 280000001 cycles: 113759124 heartbeat IPC: 1.2477 cumulative IPC: 1.25473 (Simulation time: 0 hr 14 min 59 sec) 
Heartbeat CPU 0 instructions: 290000000 cycles: 121634780 heartbeat IPC: 1.26974 cumulative IPC: 1.25638 (Simulation time: 0 hr 15 min 33 sec) 
Heartbeat CPU 0 instructions: 300000002 cycles: 129705704 heartbeat IPC: 1.23902 cumulative IPC: 1.25462 (Simulation time: 0 hr 16 min 7 sec) 
Heartbeat CPU 0 instructions: 310000000 cycles: 137815786 heartbeat IPC: 1.23303 cumulative IPC: 1.25262 (Simulation time: 0 hr 16 min 41 sec) 
Heartbeat CPU 0 instructions: 320000000 cycles: 145849305 heartbeat IPC: 1.24478 cumulative IPC: 1.25197 (Simulation time: 0 hr 17 min 15 sec) 
Heartbeat CPU 0 instructions: 330000000 cycles: 153997361 heartbeat IPC: 1.22729 cumulative IPC: 1.25003 (Simulation time: 0 hr 17 min 49 sec) 
Heartbeat CPU 0 instructions: 340000004 cycles: 162008948 heartbeat IPC: 1.24819 cumulative IPC: 1.2499 (Simulation time: 0 hr 18 min 23 sec) 
Heartbeat CPU 0 instructions: 350000002 cycles: 169960959 heartbeat IPC: 1.25754 cumulative IPC: 1.25041 (Simulation time: 0 hr 18 min 56 sec) 
Heartbeat CPU 0 instructions: 360000000 cycles: 177797055 heartbeat IPC: 1.27615 cumulative IPC: 1.25199 (Simulation time: 0 hr 19 min 30 sec) 
Heartbeat CPU 0 instructions: 370000002 cycles: 185605847 heartbeat IPC: 1.28061 cumulative IPC: 1.25364 (Simulation time: 0 hr 20 min 4 sec) 
Heartbeat CPU 0 instructions: 380000000 cycles: 193510646 heartbeat IPC: 1.26505 cumulative IPC: 1.25426 (Simulation time: 0 hr 20 min 38 sec) 
Heartbeat CPU 0 instructions: 390000000 cycles: 201554781 heartbeat IPC: 1.24314 cumulative IPC: 1.25367 (Simulation time: 0 hr 21 min 12 sec) 
Heartbeat CPU 0 instructions: 400000001 cycles: 209577402 heartbeat IPC: 1.24648 cumulative IPC: 1.25331 (Simulation time: 0 hr 21 min 46 sec) 
Heartbeat CPU 0 instructions: 410000003 cycles: 217838125 heartbeat IPC: 1.21055 cumulative IPC: 1.25121 (Simulation time: 0 hr 22 min 20 sec) 
Heartbeat CPU 0 instructions: 420000000 cycles: 225926862 heartbeat IPC: 1.23629 cumulative IPC: 1.25052 (Simulation time: 0 hr 22 min 54 sec) 
Heartbeat CPU 0 instructions: 430000004 cycles: 233986902 heartbeat IPC: 1.24069 cumulative IPC: 1.25009 (Simulation time: 0 hr 23 min 28 sec) 
Heartbeat CPU 0 instructions: 440000002 cycles: 242032414 heartbeat IPC: 1.24293 cumulative IPC: 1.24979 (Simulation time: 0 hr 24 min 2 sec) 
Heartbeat CPU 0 instructions: 450000003 cycles: 250079659 heartbeat IPC: 1.24266 cumulative IPC: 1.2495 (Simulation time: 0 hr 24 min 36 sec) 
Heartbeat CPU 0 instructions: 460000001 cycles: 258177347 heartbeat IPC: 1.23492 cumulative IPC: 1.24894 (Simulation time: 0 hr 25 min 9 sec) 
Heartbeat CPU 0 instructions: 470000000 cycles: 266167363 heartbeat IPC: 1.25156 cumulative IPC: 1.24903 (Simulation time: 0 hr 25 min 43 sec) 
Heartbeat CPU 0 instructions: 480000002 cycles: 274228886 heartbeat IPC: 1.24046 cumulative IPC: 1.24873 (Simulation time: 0 hr 26 min 17 sec) 
Heartbeat CPU 0 instructions: 490000001 cycles: 282080424 heartbeat IPC: 1.27364 cumulative IPC: 1.24957 (Simulation time: 0 hr 26 min 51 sec) 
Heartbeat CPU 0 instructions: 500000002 cycles: 289988294 heartbeat IPC: 1.26456 cumulative IPC: 1.25006 (Simulation time: 0 hr 27 min 25 sec) 
Heartbeat CPU 0 instructions: 510000004 cycles: 297831314 heartbeat IPC: 1.27502 cumulative IPC: 1.25085 (Simulation time: 0 hr 27 min 59 sec) 
Heartbeat CPU 0 instructions: 520000001 cycles: 305699088 heartbeat IPC: 1.27101 cumulative IPC: 1.25147 (Simulation time: 0 hr 28 min 33 sec) 
Heartbeat CPU 0 instructions: 530000003 cycles: 313570147 heartbeat IPC: 1.27048 cumulative IPC: 1.25204 (Simulation time: 0 hr 29 min 7 sec) 
Heartbeat CPU 0 instructions: 540000000 cycles: 321534693 heartbeat IPC: 1.25556 cumulative IPC: 1.25214 (Simulation time: 0 hr 29 min 40 sec) 
Heartbeat CPU 0 instructions: 550000001 cycles: 329417405 heartbeat IPC: 1.2686 cumulative IPC: 1.25261 (Simulation time: 0 hr 30 min 14 sec) 
Heartbeat CPU 0 instructions: 560000003 cycles: 337253409 heartbeat IPC: 1.27616 cumulative IPC: 1.25325 (Simulation time: 0 hr 30 min 48 sec) 
Heartbeat CPU 0 instructions: 570000002 cycles: 344895702 heartbeat IPC: 1.30851 cumulative IPC: 1.25468 (Simulation time: 0 hr 31 min 22 sec) 
Heartbeat CPU 0 instructions: 580000000 cycles: 352621345 heartbeat IPC: 1.29439 cumulative IPC: 1.2557 (Simulation time: 0 hr 31 min 56 sec) 
Heartbeat CPU 0 instructions: 590000000 cycles: 360589083 heartbeat IPC: 1.25506 cumulative IPC: 1.25568 (Simulation time: 0 hr 32 min 30 sec) 
Heartbeat CPU 0 instructions: 600000000 cycles: 368567238 heartbeat IPC: 1.25342 cumulative IPC: 1.25562 (Simulation time: 0 hr 33 min 4 sec) 
Heartbeat CPU 0 instructions: 610000002 cycles: 376555909 heartbeat IPC: 1.25177 cumulative IPC: 1.25553 (Simulation time: 0 hr 33 min 38 sec) 
Heartbeat CPU 0 instructions: 620000003 cycles: 384485711 heartbeat IPC: 1.26107 cumulative IPC: 1.25566 (Simulation time: 0 hr 34 min 12 sec) 
Heartbeat CPU 0 instructions: 630000000 cycles: 392447119 heartbeat IPC: 1.25606 cumulative IPC: 1.25567 (Simulation time: 0 hr 34 min 45 sec) 
Heartbeat CPU 0 instructions: 640000000 cycles: 400340406 heartbeat IPC: 1.2669 cumulative IPC: 1.25592 (Simulation time: 0 hr 35 min 19 sec) 
Heartbeat CPU 0 instructions: 650000000 cycles: 408246787 heartbeat IPC: 1.2648 cumulative IPC: 1.25612 (Simulation time: 0 hr 35 min 53 sec) 
Heartbeat CPU 0 instructions: 660000002 cycles: 416006133 heartbeat IPC: 1.28877 cumulative IPC: 1.25681 (Simulation time: 0 hr 36 min 27 sec) 
Heartbeat CPU 0 instructions: 670000001 cycles: 423672478 heartbeat IPC: 1.3044 cumulative IPC: 1.25779 (Simulation time: 0 hr 37 min 1 sec) 
Heartbeat CPU 0 instructions: 680000004 cycles: 431479430 heartbeat IPC: 1.28091 cumulative IPC: 1.25826 (Simulation time: 0 hr 37 min 35 sec) 
Heartbeat CPU 0 instructions: 690000003 cycles: 439495249 heartbeat IPC: 1.24753 cumulative IPC: 1.25804 (Simulation time: 0 hr 38 min 9 sec) 
Heartbeat CPU 0 instructions: 700000004 cycles: 447534701 heartbeat IPC: 1.24387 cumulative IPC: 1.25775 (Simulation time: 0 hr 38 min 42 sec) 
Heartbeat CPU 0 instructions: 710000004 cycles: 455390348 heartbeat IPC: 1.27297 cumulative IPC: 1.25805 (Simulation time: 0 hr 39 min 16 sec) 
Heartbeat CPU 0 instructions: 720000001 cycles: 463172861 heartbeat IPC: 1.28493 cumulative IPC: 1.25855 (Simulation time: 0 hr 39 min 50 sec) 
Heartbeat CPU 0 instructions: 730000000 cycles: 471051058 heartbeat IPC: 1.26933 cumulative IPC: 1.25876 (Simulation time: 0 hr 40 min 24 sec) 
Heartbeat CPU 0 instructions: 740000000 cycles: 478829583 heartbeat IPC: 1.28559 cumulative IPC: 1.25924 (Simulation time: 0 hr 40 min 57 sec) 
Heartbeat CPU 0 instructions: 750000003 cycles: 486756596 heartbeat IPC: 1.26151 cumulative IPC: 1.25928 (Simulation time: 0 hr 41 min 31 sec) 
Heartbeat CPU 0 instructions: 760000001 cycles: 494707222 heartbeat IPC: 1.25776 cumulative IPC: 1.25926 (Simulation time: 0 hr 42 min 5 sec) 
Heartbeat CPU 0 instructions: 770000001 cycles: 502714566 heartbeat IPC: 1.24885 cumulative IPC: 1.25907 (Simulation time: 0 hr 42 min 39 sec) 
Heartbeat CPU 0 instructions: 780000004 cycles: 510850100 heartbeat IPC: 1.22918 cumulative IPC: 1.25854 (Simulation time: 0 hr 43 min 12 sec) 
Heartbeat CPU 0 instructions: 790000001 cycles: 518876164 heartbeat IPC: 1.24594 cumulative IPC: 1.25833 (Simulation time: 0 hr 43 min 46 sec) 
Heartbeat CPU 0 instructions: 800000002 cycles: 526721461 heartbeat IPC: 1.27465 cumulative IPC: 1.2586 (Simulation time: 0 hr 44 min 20 sec) 
Heartbeat CPU 0 instructions: 810000000 cycles: 534540574 heartbeat IPC: 1.27892 cumulative IPC: 1.25892 (Simulation time: 0 hr 44 min 54 sec) 
Heartbeat CPU 0 instructions: 820000000 cycles: 542257852 heartbeat IPC: 1.29579 cumulative IPC: 1.2595 (Simulation time: 0 hr 45 min 27 sec) 
Heartbeat CPU 0 instructions: 830000000 cycles: 549989971 heartbeat IPC: 1.29331 cumulative IPC: 1.26003 (Simulation time: 0 hr 46 min 1 sec) 
Heartbeat CPU 0 instructions: 840000003 cycles: 557682621 heartbeat IPC: 1.29994 cumulative IPC: 1.26063 (Simulation time: 0 hr 46 min 35 sec) 
Heartbeat CPU 0 instructions: 850000000 cycles: 565537350 heartbeat IPC: 1.27312 cumulative IPC: 1.26082 (Simulation time: 0 hr 47 min 9 sec) 
Heartbeat CPU 0 instructions: 860000001 cycles: 573312544 heartbeat IPC: 1.28614 cumulative IPC: 1.2612 (Simulation time: 0 hr 47 min 43 sec) 
Heartbeat CPU 0 instructions: 870000000 cycles: 581005860 heartbeat IPC: 1.29983 cumulative IPC: 1.26176 (Simulation time: 0 hr 48 min 17 sec) 
Heartbeat CPU 0 instructions: 880000003 cycles: 588891904 heartbeat IPC: 1.26806 cumulative IPC: 1.26185 (Simulation time: 0 hr 48 min 51 sec) 
Heartbeat CPU 0 instructions: 890000003 cycles: 596728089 heartbeat IPC: 1.27613 cumulative IPC: 1.26205 (Simulation time: 0 hr 49 min 25 sec) 
Heartbeat CPU 0 instructions: 900000000 cycles: 604501670 heartbeat IPC: 1.28641 cumulative IPC: 1.2624 (Simulation time: 0 hr 49 min 59 sec) 
Heartbeat CPU 0 instructions: 910000001 cycles: 612203664 heartbeat IPC: 1.29837 cumulative IPC: 1.26289 (Simulation time: 0 hr 50 min 34 sec) 
Heartbeat CPU 0 instructions: 920000004 cycles: 619965798 heartbeat IPC: 1.28831 cumulative IPC: 1.26323 (Simulation time: 0 hr 51 min 8 sec) 
Heartbeat CPU 0 instructions: 930000002 cycles: 627602844 heartbeat IPC: 1.30941 cumulative IPC: 1.26384 (Simulation time: 0 hr 51 min 42 sec) 
Heartbeat CPU 0 instructions: 940000004 cycles: 635302190 heartbeat IPC: 1.29881 cumulative IPC: 1.2643 (Simulation time: 0 hr 52 min 16 sec) 
Heartbeat CPU 0 instructions: 950000000 cycles: 642981290 heartbeat IPC: 1.30224 cumulative IPC: 1.2648 (Simulation time: 0 hr 52 min 50 sec) 
Heartbeat CPU 0 instructions: 960000001 cycles: 650846708 heartbeat IPC: 1.27139 cumulative IPC: 1.26488 (Simulation time: 0 hr 53 min 24 sec) 
Heartbeat CPU 0 instructions: 970000002 cycles: 658608253 heartbeat IPC: 1.2884 cumulative IPC: 1.26518 (Simulation time: 0 hr 53 min 58 sec) 
Heartbeat CPU 0 instructions: 980000000 cycles: 666386296 heartbeat IPC: 1.28567 cumulative IPC: 1.26544 (Simulation time: 0 hr 54 min 31 sec) 
Heartbeat CPU 0 instructions: 990000003 cycles: 674048640 heartbeat IPC: 1.30508 cumulative IPC: 1.26593 (Simulation time: 0 hr 55 min 6 sec) 
Heartbeat CPU 0 instructions: 1000000003 cycles: 682000733 heartbeat IPC: 1.25753 cumulative IPC: 1.26582 (Simulation time: 0 hr 55 min 40 sec) 
Heartbeat CPU 0 instructions: 1010000001 cycles: 689571868 heartbeat IPC: 1.32081 cumulative IPC: 1.26647 (Simulation time: 0 hr 56 min 15 sec) 
Heartbeat CPU 0 instructions: 1020000002 cycles: 697225707 heartbeat IPC: 1.30653 cumulative IPC: 1.26695 (Simulation time: 0 hr 56 min 49 sec) 
Heartbeat CPU 0 instructions: 1030000000 cycles: 705085752 heartbeat IPC: 1.27226 cumulative IPC: 1.26701 (Simulation time: 0 hr 57 min 23 sec) 
Heartbeat CPU 0 instructions: 1040000001 cycles: 712869709 heartbeat IPC: 1.28469 cumulative IPC: 1.26722 (Simulation time: 0 hr 57 min 58 sec) 
Heartbeat CPU 0 instructions: 1050000001 cycles: 720638061 heartbeat IPC: 1.28727 cumulative IPC: 1.26745 (Simulation time: 0 hr 58 min 32 sec) 
Heartbeat CPU 0 instructions: 1060000001 cycles: 728553429 heartbeat IPC: 1.26337 cumulative IPC: 1.2674 (Simulation time: 0 hr 59 min 5 sec) 
Heartbeat CPU 0 instructions: 1070000002 cycles: 736403986 heartbeat IPC: 1.2738 cumulative IPC: 1.26748 (Simulation time: 0 hr 59 min 39 sec) 
Heartbeat CPU 0 instructions: 1080000000 cycles: 744205576 heartbeat IPC: 1.28179 cumulative IPC: 1.26764 (Simulation time: 1 hr 0 min 13 sec) 
Heartbeat CPU 0 instructions: 1090000002 cycles: 752111749 heartbeat IPC: 1.26483 cumulative IPC: 1.2676 (Simulation time: 1 hr 0 min 47 sec) 
Heartbeat CPU 0 instructions: 1100000001 cycles: 759821281 heartbeat IPC: 1.2971 cumulative IPC: 1.26793 (Simulation time: 1 hr 1 min 22 sec) 
Heartbeat CPU 0 instructions: 1110000003 cycles: 767809784 heartbeat IPC: 1.2518 cumulative IPC: 1.26775 (Simulation time: 1 hr 1 min 56 sec) 
Heartbeat CPU 0 instructions: 1120000000 cycles: 775714974 heartbeat IPC: 1.26499 cumulative IPC: 1.26772 (Simulation time: 1 hr 2 min 30 sec) 
Heartbeat CPU 0 instructions: 1130000001 cycles: 783554929 heartbeat IPC: 1.27552 cumulative IPC: 1.2678 (Simulation time: 1 hr 3 min 4 sec) 
Heartbeat CPU 0 instructions: 1140000000 cycles: 791347274 heartbeat IPC: 1.28331 cumulative IPC: 1.26796 (Simulation time: 1 hr 3 min 38 sec) 
Heartbeat CPU 0 instructions: 1150000000 cycles: 799227497 heartbeat IPC: 1.269 cumulative IPC: 1.26797 (Simulation time: 1 hr 4 min 12 sec) 
Heartbeat CPU 0 instructions: 1160000000 cycles: 807135042 heartbeat IPC: 1.26461 cumulative IPC: 1.26794 (Simulation time: 1 hr 4 min 47 sec) 
Heartbeat CPU 0 instructions: 1170000002 cycles: 815012467 heartbeat IPC: 1.26945 cumulative IPC: 1.26795 (Simulation time: 1 hr 5 min 21 sec) 
Heartbeat CPU 0 instructions: 1180000001 cycles: 822955730 heartbeat IPC: 1.25893 cumulative IPC: 1.26786 (Simulation time: 1 hr 5 min 55 sec) 
Heartbeat CPU 0 instructions: 1190000000 cycles: 830784087 heartbeat IPC: 1.27741 cumulative IPC: 1.26796 (Simulation time: 1 hr 6 min 30 sec) 
Heartbeat CPU 0 instructions: 1200000000 cycles: 838529819 heartbeat IPC: 1.29103 cumulative IPC: 1.26818 (Simulation time: 1 hr 7 min 4 sec) 
Finished CPU 0 instructions: 1000000002 cycles: 788529620 cumulative IPC: 1.26818 (Simulation time: 1 hr 7 min 4 sec) 

ChampSim completed all CPUs

Region of Interest Statistics

CPU 0 cumulative IPC: 1.26818 instructions: 1000000002 cycles: 788529620
cpu0_DTLB TOTAL     ACCESS:  186588765  HIT:  186322129  MISS:     266636
cpu0_DTLB LOAD      ACCESS:  130176388  HIT:  129920724  MISS:     255664
cpu0_DTLB RFO       ACCESS:   56412377  HIT:   56401405  MISS:      10972
cpu0_DTLB PREFETCH  ACCESS:          0  HIT:          0  MISS:          0
cpu0_DTLB WRITEBACK ACCESS:          0  HIT:          0  MISS:          0
cpu0_DTLB TRANSLATION ACCESS:          0  HIT:          0  MISS:          0
cpu0_DTLB PREFETCH  REQUESTED:          0  ISSUED:          0  USEFUL:          0  USELESS:          0
cpu0_DTLB AVERAGE MISS LATENCY: 126.912 cycles
cpu0_ITLB TOTAL     ACCESS:   77435098  HIT:   77435098  MISS:          0
cpu0_ITLB LOAD      ACCESS:   77435098  HIT:   77435098  MISS:          0
cpu0_ITLB RFO       ACCESS:          0  HIT:          0  MISS:          0
cpu0_ITLB PREFETCH  ACCESS:          0  HIT:          0  MISS:          0
cpu0_ITLB WRITEBACK ACCESS:          0  HIT:          0  MISS:          0
cpu0_ITLB TRANSLATION ACCESS:          0  HIT:          0  MISS:          0
cpu0_ITLB PREFETCH  REQUESTED:          0  ISSUED:          0  USEFUL:          0  USELESS:          0
cpu0_ITLB AVERAGE MISS LATENCY: -nan cycles
cpu0_L1I TOTAL     ACCESS:  106808541  HIT:  106328581  MISS:     479960
cpu0_L1I LOAD      ACCESS:  106808541  HIT:  106328581  MISS:     479960
cpu0_L1I RFO       ACCESS:          0  HIT:          0  MISS:          0
cpu0_L1I PREFETCH  ACCESS:          0  HIT:          0  MISS:          0
cpu0_L1I WRITEBACK ACCESS:          0  HIT:          0  MISS:          0
cpu0_L1I TRANSLATION ACCESS:          0  HIT:          0  MISS:          0
cpu0_L1I PREFETCH  REQUESTED:          0  ISSUED:          0  USEFUL:          0  USELESS:          0
cpu0_L1I AVERAGE MISS LATENCY: 11.3601 cycles
cpu0_STLB TOTAL     ACCESS:     266636  HIT:      94975  MISS:     171661
cpu0_STLB LOAD      ACCESS:     255664  HIT:      84226  MISS:     171438
cpu0_STLB RFO       ACCESS:      10972  HIT:      10749  MISS:        223
cpu0_STLB PREFETCH  ACCESS:          0  HIT:          0  MISS:          0
cpu0_STLB WRITEBACK ACCESS:          0  HIT:          0  MISS:          0
cpu0_STLB TRANSLATION ACCESS:          0  HIT:          0  MISS:          0
cpu0_STLB PREFETCH  REQUESTED:          0  ISSUED:          0  USEFUL:          0  USELESS:          0
cpu0_STLB AVERAGE MISS LATENCY: 183.145 cycles
cpu0_L1D TOTAL     ACCESS:  267785348  HIT:  266925879  MISS:     859469
cpu0_L1D LOAD      ACCESS:  151371152  HIT:  150855146  MISS:     516006
cpu0_L1D RFO       ACCESS:  116243724  HIT:  116041321  MISS:     202403
cpu0_L1D PREFETCH  ACCESS:          0  HIT:          0  MISS:          0
cpu0_L1D WRITEBACK ACCESS:          0  HIT:          0  MISS:          0
cpu0_L1D TRANSLATION ACCESS:     170472  HIT:      29412  MISS:     141060
cpu0_L1D PREFETCH  REQUESTED:          0  ISSUED:          0  USEFUL:          0  USELESS:          0
cpu0_L1D AVERAGE MISS LATENCY: 67.9659 cycles
cpu0_L2C TOTAL     ACCESS:    2054068  HIT:    1768780  MISS:     285288
cpu0_L2C LOAD      ACCESS:     995965  HIT:     719710  MISS:     276255
cpu0_L2C RFO       ACCESS:     202399  HIT:     194560  MISS:       7839
cpu0_L2C PREFETCH  ACCESS:     285794  HIT:     285596  MISS:        198
cpu0_L2C WRITEBACK ACCESS:     428850  HIT:     428433  MISS:        417
cpu0_L2C TRANSLATION ACCESS:     141060  HIT:     140481  MISS:        579
cpu0_L2C PREFETCH  REQUESTED:     625162  ISSUED:     617067  USEFUL:         45  USELESS:        163
cpu0_L2C AVERAGE MISS LATENCY: 172.245 cycles
LLC TOTAL     ACCESS:     780890  HIT:     303765  MISS:     477125
LLC LOAD      ACCESS:     276243  HIT:      16654  MISS:     259589
LLC RFO       ACCESS:       7839  HIT:       4682  MISS:       3157
LLC PREFETCH  ACCESS:     299262  HIT:      88723  MISS:     210539
LLC WRITEBACK ACCESS:     196967  HIT:     193614  MISS:       3353
LLC TRANSLATION ACCESS:        579  HIT:         92  MISS:        487
LLC PREFETCH  REQUESTED:          0  ISSUED:          0  USEFUL:          0  USELESS:          0
LLC AVERAGE MISS LATENCY: 187.466 cycles

DRAM Statistics
 CHANNEL 0
 RQ ROW_BUFFER_HIT:      95581  ROW_BUFFER_MISS:     378191
 DBUS AVG_CONGESTED_CYCLE:    3.88402
 WQ ROW_BUFFER_HIT:       5695  ROW_BUFFER_MISS:     183205  FULL:          0


CPU 0 Branch Prediction Accuracy: 90.3883% MPKI: 14.2102 Average ROB Occupancy at Mispredict: 33.6261
Branch type MPKI
BRANCH_DIRECT_JUMP: 2.4e-05
BRANCH_INDIRECT: 0.001995
BRANCH_CONDITIONAL: 14.2082
BRANCH_DIRECT_CALL: 3e-06
BRANCH_INDIRECT_CALL: 0
BRANCH_RETURN: 4e-06

