Initialize SIGNATURE TABLE
ST_SET: 1
ST_WAY: 256
ST_TAG_BIT: 16
ST_TAG_MASK: ffff

Initialize PATTERN TABLE
PT_SET: 512
PT_WAY: 4
SIG_DELTA_BIT: 7
C_SIG_BIT: 4
C_DELTA_BIT: 4

Initialize PREFETCH FILTER
FILTER_SET: 1024

*** ChampSim Multicore Out-of-Order Simulator ***

Warmup Instructions: 200000000
Simulation Instructions: 1000000000
Number of CPUs: 1
Off-chip DRAM Size: 4 GiB Channels: 1 Width: 64-bit Data Rate: 3200 MT/s

VirtualMemory physical capacity: 8588881920 num_ppages: 2096895
VirtualMemory page size: 4096 log2_page_size: 12

CPU 0 runs /home/faculty/p/pgratz/dpc3_traces/625.x264_s-18B.champsimtrace.xz
CPU 0 Bimodal branch predictor
Basic BTB sets: 1024 ways: 8 indirect buffer size: 4096 RAS size: 64
WARNING: The extended signature CACHE::prefetch_line(ip, base_addr, pf_addr, fill_this_level, prefetch_metadata) is deprecated.
WARNING: Use CACHE::prefetch_line(pf_addr, fill_this_level, prefetch_metadata) instead.
Heartbeat CPU 0 instructions: 10000003 cycles: 2500087 heartbeat IPC: 3.99986 cumulative IPC: 3.99986 (Simulation time: 0 hr 0 min 29 sec) 
Heartbeat CPU 0 instructions: 20000003 cycles: 5000087 heartbeat IPC: 4 cumulative IPC: 3.99993 (Simulation time: 0 hr 0 min 57 sec) 
Heartbeat CPU 0 instructions: 30000001 cycles: 7500258 heartbeat IPC: 3.99973 cumulative IPC: 3.99986 (Simulation time: 0 hr 1 min 25 sec) 
Heartbeat CPU 0 instructions: 40000001 cycles: 10000258 heartbeat IPC: 4 cumulative IPC: 3.9999 (Simulation time: 0 hr 1 min 53 sec) 
Heartbeat CPU 0 instructions: 50000001 cycles: 12500258 heartbeat IPC: 4 cumulative IPC: 3.99992 (Simulation time: 0 hr 2 min 21 sec) 
Heartbeat CPU 0 instructions: 60000001 cycles: 15000258 heartbeat IPC: 4 cumulative IPC: 3.99993 (Simulation time: 0 hr 2 min 49 sec) 
Heartbeat CPU 0 instructions: 70000001 cycles: 17500258 heartbeat IPC: 4 cumulative IPC: 3.99994 (Simulation time: 0 hr 3 min 17 sec) 
Heartbeat CPU 0 instructions: 80000001 cycles: 20000258 heartbeat IPC: 4 cumulative IPC: 3.99995 (Simulation time: 0 hr 3 min 45 sec) 
Heartbeat CPU 0 instructions: 90000001 cycles: 22500258 heartbeat IPC: 4 cumulative IPC: 3.99995 (Simulation time: 0 hr 4 min 14 sec) 
Heartbeat CPU 0 instructions: 100000001 cycles: 25000258 heartbeat IPC: 4 cumulative IPC: 3.99996 (Simulation time: 0 hr 4 min 42 sec) 
Heartbeat CPU 0 instructions: 110000001 cycles: 27500258 heartbeat IPC: 4 cumulative IPC: 3.99996 (Simulation time: 0 hr 5 min 10 sec) 
Heartbeat CPU 0 instructions: 120000001 cycles: 30000258 heartbeat IPC: 4 cumulative IPC: 3.99997 (Simulation time: 0 hr 5 min 38 sec) 
Heartbeat CPU 0 instructions: 130000001 cycles: 32500258 heartbeat IPC: 4 cumulative IPC: 3.99997 (Simulation time: 0 hr 6 min 7 sec) 
Heartbeat CPU 0 instructions: 140000000 cycles: 35011567 heartbeat IPC: 3.98199 cumulative IPC: 3.99868 (Simulation time: 0 hr 6 min 36 sec) 
Heartbeat CPU 0 instructions: 150000003 cycles: 37563547 heartbeat IPC: 3.91853 cumulative IPC: 3.99323 (Simulation time: 0 hr 7 min 4 sec) 
Heartbeat CPU 0 instructions: 160000003 cycles: 40086429 heartbeat IPC: 3.96372 cumulative IPC: 3.99138 (Simulation time: 0 hr 7 min 32 sec) 
Heartbeat CPU 0 instructions: 170000003 cycles: 42614647 heartbeat IPC: 3.95536 cumulative IPC: 3.98924 (Simulation time: 0 hr 8 min 1 sec) 
Heartbeat CPU 0 instructions: 180000001 cycles: 45135711 heartbeat IPC: 3.96658 cumulative IPC: 3.98797 (Simulation time: 0 hr 8 min 28 sec) 
Heartbeat CPU 0 instructions: 190000003 cycles: 47662036 heartbeat IPC: 3.95832 cumulative IPC: 3.9864 (Simulation time: 0 hr 8 min 56 sec) 
Heartbeat CPU 0 instructions: 200000002 cycles: 50192830 heartbeat IPC: 3.95133 cumulative IPC: 3.98463 (Simulation time: 0 hr 9 min 24 sec) 

Warmup complete CPU 0 instructions: 200000002 cycles: 50192830 (Simulation time: 0 hr 9 min 24 sec) 

Heartbeat CPU 0 instructions: 210000001 cycles: 54003408 heartbeat IPC: 2.62427 cumulative IPC: 2.62427 (Simulation time: 0 hr 9 min 53 sec) 
Heartbeat CPU 0 instructions: 220000002 cycles: 57920708 heartbeat IPC: 2.55278 cumulative IPC: 2.58803 (Simulation time: 0 hr 10 min 20 sec) 
Heartbeat CPU 0 instructions: 230000003 cycles: 61844099 heartbeat IPC: 2.54882 cumulative IPC: 2.57483 (Simulation time: 0 hr 10 min 49 sec) 
Heartbeat CPU 0 instructions: 240000004 cycles: 65725124 heartbeat IPC: 2.57664 cumulative IPC: 2.57528 (Simulation time: 0 hr 11 min 17 sec) 
Heartbeat CPU 0 instructions: 250000004 cycles: 69677814 heartbeat IPC: 2.52992 cumulative IPC: 2.56608 (Simulation time: 0 hr 11 min 45 sec) 
Heartbeat CPU 0 instructions: 260000001 cycles: 73529669 heartbeat IPC: 2.59615 cumulative IPC: 2.57104 (Simulation time: 0 hr 12 min 13 sec) 
Heartbeat CPU 0 instructions: 270000001 cycles: 77386919 heartbeat IPC: 2.59252 cumulative IPC: 2.57409 (Simulation time: 0 hr 12 min 41 sec) 
Heartbeat CPU 0 instructions: 280000000 cycles: 81330283 heartbeat IPC: 2.53591 cumulative IPC: 2.56925 (Simulation time: 0 hr 13 min 9 sec) 
Heartbeat CPU 0 instructions: 290000001 cycles: 85182989 heartbeat IPC: 2.59558 cumulative IPC: 2.57215 (Simulation time: 0 hr 13 min 38 sec) 
Heartbeat CPU 0 instructions: 300000002 cycles: 89012733 heartbeat IPC: 2.61114 cumulative IPC: 2.576 (Simulation time: 0 hr 14 min 6 sec) 
Heartbeat CPU 0 instructions: 310000001 cycles: 92981533 heartbeat IPC: 2.51965 cumulative IPC: 2.57077 (Simulation time: 0 hr 14 min 34 sec) 
Heartbeat CPU 0 instructions: 320000001 cycles: 96815404 heartbeat IPC: 2.60833 cumulative IPC: 2.57386 (Simulation time: 0 hr 15 min 2 sec) 
Heartbeat CPU 0 instructions: 330000002 cycles: 100637676 heartbeat IPC: 2.61625 cumulative IPC: 2.57707 (Simulation time: 0 hr 15 min 30 sec) 
Heartbeat CPU 0 instructions: 340000001 cycles: 104455205 heartbeat IPC: 2.6195 cumulative IPC: 2.58006 (Simulation time: 0 hr 15 min 58 sec) 
Heartbeat CPU 0 instructions: 350000000 cycles: 108282467 heartbeat IPC: 2.61283 cumulative IPC: 2.58222 (Simulation time: 0 hr 16 min 27 sec) 
Heartbeat CPU 0 instructions: 360000002 cycles: 112095726 heartbeat IPC: 2.62243 cumulative IPC: 2.58469 (Simulation time: 0 hr 16 min 55 sec) 
Heartbeat CPU 0 instructions: 370000000 cycles: 115907021 heartbeat IPC: 2.62378 cumulative IPC: 2.58696 (Simulation time: 0 hr 17 min 23 sec) 
Heartbeat CPU 0 instructions: 380000002 cycles: 119739263 heartbeat IPC: 2.60944 cumulative IPC: 2.5882 (Simulation time: 0 hr 17 min 52 sec) 
Heartbeat CPU 0 instructions: 390000002 cycles: 123599328 heartbeat IPC: 2.59063 cumulative IPC: 2.58833 (Simulation time: 0 hr 18 min 21 sec) 
Heartbeat CPU 0 instructions: 400000001 cycles: 132198155 heartbeat IPC: 1.16295 cumulative IPC: 2.43887 (Simulation time: 0 hr 19 min 15 sec) 
Heartbeat CPU 0 instructions: 410000000 cycles: 135797286 heartbeat IPC: 2.77845 cumulative IPC: 2.45314 (Simulation time: 0 hr 20 min 2 sec) 
Heartbeat CPU 0 instructions: 420000002 cycles: 139827419 heartbeat IPC: 2.48131 cumulative IPC: 2.45441 (Simulation time: 0 hr 20 min 44 sec) 
Heartbeat CPU 0 instructions: 430000003 cycles: 143954187 heartbeat IPC: 2.4232 cumulative IPC: 2.45304 (Simulation time: 0 hr 21 min 15 sec) 
Heartbeat CPU 0 instructions: 440000001 cycles: 147580079 heartbeat IPC: 2.75794 cumulative IPC: 2.46439 (Simulation time: 0 hr 21 min 45 sec) 
Heartbeat CPU 0 instructions: 450000001 cycles: 151157275 heartbeat IPC: 2.79549 cumulative IPC: 2.47612 (Simulation time: 0 hr 22 min 14 sec) 
Heartbeat CPU 0 instructions: 460000004 cycles: 154796129 heartbeat IPC: 2.74812 cumulative IPC: 2.48558 (Simulation time: 0 hr 22 min 44 sec) 
Heartbeat CPU 0 instructions: 470000000 cycles: 158445401 heartbeat IPC: 2.74027 cumulative IPC: 2.49417 (Simulation time: 0 hr 23 min 14 sec) 
Heartbeat CPU 0 instructions: 480000002 cycles: 162072393 heartbeat IPC: 2.75711 cumulative IPC: 2.50269 (Simulation time: 0 hr 23 min 44 sec) 
Heartbeat CPU 0 instructions: 490000003 cycles: 165733020 heartbeat IPC: 2.73177 cumulative IPC: 2.50995 (Simulation time: 0 hr 24 min 15 sec) 
Heartbeat CPU 0 instructions: 500000002 cycles: 169368284 heartbeat IPC: 2.75083 cumulative IPC: 2.5173 (Simulation time: 0 hr 24 min 45 sec) 
Heartbeat CPU 0 instructions: 510000004 cycles: 172984949 heartbeat IPC: 2.76498 cumulative IPC: 2.52459 (Simulation time: 0 hr 25 min 15 sec) 
Heartbeat CPU 0 instructions: 520000003 cycles: 176564201 heartbeat IPC: 2.79388 cumulative IPC: 2.53222 (Simulation time: 0 hr 25 min 44 sec) 
Heartbeat CPU 0 instructions: 530000001 cycles: 180184576 heartbeat IPC: 2.76214 cumulative IPC: 2.53862 (Simulation time: 0 hr 26 min 15 sec) 
Heartbeat CPU 0 instructions: 540000004 cycles: 183815071 heartbeat IPC: 2.75445 cumulative IPC: 2.54449 (Simulation time: 0 hr 26 min 45 sec) 
Heartbeat CPU 0 instructions: 550000001 cycles: 187353239 heartbeat IPC: 2.82632 cumulative IPC: 2.55176 (Simulation time: 0 hr 27 min 14 sec) 
Heartbeat CPU 0 instructions: 560000000 cycles: 190930961 heartbeat IPC: 2.79507 cumulative IPC: 2.55794 (Simulation time: 0 hr 27 min 44 sec) 
Heartbeat CPU 0 instructions: 570000003 cycles: 199302631 heartbeat IPC: 1.19451 cumulative IPC: 2.48139 (Simulation time: 0 hr 28 min 42 sec) 
Heartbeat CPU 0 instructions: 580000004 cycles: 203016424 heartbeat IPC: 2.69267 cumulative IPC: 2.48653 (Simulation time: 0 hr 29 min 39 sec) 
Heartbeat CPU 0 instructions: 590000004 cycles: 207202605 heartbeat IPC: 2.38881 cumulative IPC: 2.48392 (Simulation time: 0 hr 30 min 9 sec) 
Heartbeat CPU 0 instructions: 600000003 cycles: 211093424 heartbeat IPC: 2.57015 cumulative IPC: 2.48601 (Simulation time: 0 hr 30 min 41 sec) 
Heartbeat CPU 0 instructions: 610000000 cycles: 215043724 heartbeat IPC: 2.53145 cumulative IPC: 2.4871 (Simulation time: 0 hr 31 min 14 sec) 
Heartbeat CPU 0 instructions: 620000003 cycles: 218959778 heartbeat IPC: 2.55359 cumulative IPC: 2.48864 (Simulation time: 0 hr 31 min 47 sec) 
Heartbeat CPU 0 instructions: 630000003 cycles: 222902760 heartbeat IPC: 2.53615 cumulative IPC: 2.48972 (Simulation time: 0 hr 32 min 20 sec) 
Heartbeat CPU 0 instructions: 640000002 cycles: 226822051 heartbeat IPC: 2.55148 cumulative IPC: 2.49109 (Simulation time: 0 hr 32 min 52 sec) 
Heartbeat CPU 0 instructions: 650000001 cycles: 230733448 heartbeat IPC: 2.55663 cumulative IPC: 2.49251 (Simulation time: 0 hr 33 min 25 sec) 
Heartbeat CPU 0 instructions: 660000000 cycles: 234624159 heartbeat IPC: 2.57022 cumulative IPC: 2.49415 (Simulation time: 0 hr 33 min 57 sec) 
Heartbeat CPU 0 instructions: 670000001 cycles: 242659304 heartbeat IPC: 1.24453 cumulative IPC: 2.44198 (Simulation time: 0 hr 35 min 1 sec) 
Heartbeat CPU 0 instructions: 680000002 cycles: 246583400 heartbeat IPC: 2.54836 cumulative IPC: 2.44411 (Simulation time: 0 hr 35 min 49 sec) 
Heartbeat CPU 0 instructions: 690000000 cycles: 250686697 heartbeat IPC: 2.43706 cumulative IPC: 2.44396 (Simulation time: 0 hr 36 min 20 sec) 
Heartbeat CPU 0 instructions: 700000000 cycles: 254617210 heartbeat IPC: 2.5442 cumulative IPC: 2.44589 (Simulation time: 0 hr 36 min 52 sec) 
Heartbeat CPU 0 instructions: 710000002 cycles: 258552060 heartbeat IPC: 2.54139 cumulative IPC: 2.4477 (Simulation time: 0 hr 37 min 25 sec) 
Heartbeat CPU 0 instructions: 720000000 cycles: 262475649 heartbeat IPC: 2.54869 cumulative IPC: 2.44956 (Simulation time: 0 hr 37 min 57 sec) 
Heartbeat CPU 0 instructions: 730000000 cycles: 266406399 heartbeat IPC: 2.54404 cumulative IPC: 2.45128 (Simulation time: 0 hr 38 min 30 sec) 
Heartbeat CPU 0 instructions: 740000002 cycles: 270315236 heartbeat IPC: 2.55831 cumulative IPC: 2.45318 (Simulation time: 0 hr 39 min 2 sec) 
Heartbeat CPU 0 instructions: 750000001 cycles: 274248031 heartbeat IPC: 2.54272 cumulative IPC: 2.45475 (Simulation time: 0 hr 39 min 35 sec) 
Heartbeat CPU 0 instructions: 760000000 cycles: 282413470 heartbeat IPC: 1.22467 cumulative IPC: 2.4115 (Simulation time: 0 hr 40 min 28 sec) 
Heartbeat CPU 0 instructions: 770000004 cycles: 285956014 heartbeat IPC: 2.82283 cumulative IPC: 2.41768 (Simulation time: 0 hr 41 min 19 sec) 
Heartbeat CPU 0 instructions: 780000003 cycles: 290113473 heartbeat IPC: 2.40532 cumulative IPC: 2.41747 (Simulation time: 0 hr 41 min 57 sec) 
Heartbeat CPU 0 instructions: 790000000 cycles: 293859905 heartbeat IPC: 2.66921 cumulative IPC: 2.42134 (Simulation time: 0 hr 42 min 24 sec) 
Heartbeat CPU 0 instructions: 800000002 cycles: 297609449 heartbeat IPC: 2.66699 cumulative IPC: 2.42506 (Simulation time: 0 hr 42 min 51 sec) 
Heartbeat CPU 0 instructions: 810000004 cycles: 301362393 heartbeat IPC: 2.66458 cumulative IPC: 2.42864 (Simulation time: 0 hr 43 min 18 sec) 
Heartbeat CPU 0 instructions: 820000000 cycles: 305118910 heartbeat IPC: 2.66204 cumulative IPC: 2.43208 (Simulation time: 0 hr 43 min 45 sec) 
Heartbeat CPU 0 instructions: 830000000 cycles: 308870777 heartbeat IPC: 2.66534 cumulative IPC: 2.43546 (Simulation time: 0 hr 44 min 12 sec) 
Heartbeat CPU 0 instructions: 840000003 cycles: 312635766 heartbeat IPC: 2.65605 cumulative IPC: 2.43863 (Simulation time: 0 hr 44 min 39 sec) 
Heartbeat CPU 0 instructions: 850000000 cycles: 316360908 heartbeat IPC: 2.68446 cumulative IPC: 2.44207 (Simulation time: 0 hr 45 min 6 sec) 
Heartbeat CPU 0 instructions: 860000000 cycles: 320096497 heartbeat IPC: 2.67695 cumulative IPC: 2.44532 (Simulation time: 0 hr 45 min 33 sec) 
Heartbeat CPU 0 instructions: 870000004 cycles: 323810041 heartbeat IPC: 2.69285 cumulative IPC: 2.44868 (Simulation time: 0 hr 46 min 0 sec) 
Heartbeat CPU 0 instructions: 880000001 cycles: 327618253 heartbeat IPC: 2.6259 cumulative IPC: 2.45111 (Simulation time: 0 hr 46 min 26 sec) 
Heartbeat CPU 0 instructions: 890000001 cycles: 331452847 heartbeat IPC: 2.60784 cumulative IPC: 2.45325 (Simulation time: 0 hr 46 min 53 sec) 
Heartbeat CPU 0 instructions: 900000000 cycles: 335290291 heartbeat IPC: 2.6059 cumulative IPC: 2.4553 (Simulation time: 0 hr 47 min 20 sec) 
Heartbeat CPU 0 instructions: 910000001 cycles: 339130226 heartbeat IPC: 2.60421 cumulative IPC: 2.45728 (Simulation time: 0 hr 47 min 47 sec) 
Heartbeat CPU 0 instructions: 920000000 cycles: 342985591 heartbeat IPC: 2.59379 cumulative IPC: 2.45908 (Simulation time: 0 hr 48 min 15 sec) 
Heartbeat CPU 0 instructions: 930000000 cycles: 346832282 heartbeat IPC: 2.59964 cumulative IPC: 2.4609 (Simulation time: 0 hr 48 min 42 sec) 
Heartbeat CPU 0 instructions: 940000003 cycles: 350661909 heartbeat IPC: 2.61122 cumulative IPC: 2.46282 (Simulation time: 0 hr 49 min 10 sec) 
Heartbeat CPU 0 instructions: 950000002 cycles: 354502102 heartbeat IPC: 2.60404 cumulative IPC: 2.4646 (Simulation time: 0 hr 49 min 37 sec) 
Heartbeat CPU 0 instructions: 960000002 cycles: 358341674 heartbeat IPC: 2.60446 cumulative IPC: 2.46634 (Simulation time: 0 hr 50 min 5 sec) 
Heartbeat CPU 0 instructions: 970000002 cycles: 362175730 heartbeat IPC: 2.6082 cumulative IPC: 2.46808 (Simulation time: 0 hr 50 min 33 sec) 
Heartbeat CPU 0 instructions: 980000003 cycles: 365963291 heartbeat IPC: 2.64022 cumulative IPC: 2.47015 (Simulation time: 0 hr 51 min 1 sec) 
Heartbeat CPU 0 instructions: 990000000 cycles: 369787037 heartbeat IPC: 2.61524 cumulative IPC: 2.47188 (Simulation time: 0 hr 51 min 28 sec) 
Heartbeat CPU 0 instructions: 1000000003 cycles: 373603993 heartbeat IPC: 2.61989 cumulative IPC: 2.47363 (Simulation time: 0 hr 51 min 56 sec) 
Heartbeat CPU 0 instructions: 1010000000 cycles: 377380141 heartbeat IPC: 2.6482 cumulative IPC: 2.47565 (Simulation time: 0 hr 52 min 23 sec) 
Heartbeat CPU 0 instructions: 1020000002 cycles: 380855499 heartbeat IPC: 2.8774 cumulative IPC: 2.47987 (Simulation time: 0 hr 52 min 52 sec) 
Heartbeat CPU 0 instructions: 1030000004 cycles: 384108966 heartbeat IPC: 3.07364 cumulative IPC: 2.48565 (Simulation time: 0 hr 53 min 20 sec) 
Heartbeat CPU 0 instructions: 1040000004 cycles: 387360101 heartbeat IPC: 3.07585 cumulative IPC: 2.49134 (Simulation time: 0 hr 53 min 48 sec) 
Heartbeat CPU 0 instructions: 1050000000 cycles: 390610462 heartbeat IPC: 3.07658 cumulative IPC: 2.49693 (Simulation time: 0 hr 54 min 16 sec) 
Heartbeat CPU 0 instructions: 1060000000 cycles: 394441953 heartbeat IPC: 2.60995 cumulative IPC: 2.49819 (Simulation time: 0 hr 54 min 43 sec) 
Heartbeat CPU 0 instructions: 1070000000 cycles: 398455677 heartbeat IPC: 2.49145 cumulative IPC: 2.49811 (Simulation time: 0 hr 55 min 10 sec) 
Heartbeat CPU 0 instructions: 1080000002 cycles: 402479243 heartbeat IPC: 2.48536 cumulative IPC: 2.49797 (Simulation time: 0 hr 55 min 37 sec) 
Heartbeat CPU 0 instructions: 1090000002 cycles: 406497514 heartbeat IPC: 2.48863 cumulative IPC: 2.49786 (Simulation time: 0 hr 56 min 4 sec) 
Heartbeat CPU 0 instructions: 1100000003 cycles: 410494074 heartbeat IPC: 2.50215 cumulative IPC: 2.49791 (Simulation time: 0 hr 56 min 32 sec) 
Heartbeat CPU 0 instructions: 1110000001 cycles: 414285995 heartbeat IPC: 2.63719 cumulative IPC: 2.49936 (Simulation time: 0 hr 56 min 59 sec) 
Heartbeat CPU 0 instructions: 1120000000 cycles: 418038788 heartbeat IPC: 2.66468 cumulative IPC: 2.50105 (Simulation time: 0 hr 57 min 26 sec) 
Heartbeat CPU 0 instructions: 1130000001 cycles: 421791514 heartbeat IPC: 2.66473 cumulative IPC: 2.5027 (Simulation time: 0 hr 57 min 54 sec) 
Heartbeat CPU 0 instructions: 1140000001 cycles: 425549237 heartbeat IPC: 2.66119 cumulative IPC: 2.50429 (Simulation time: 0 hr 58 min 21 sec) 
Heartbeat CPU 0 instructions: 1150000001 cycles: 429279966 heartbeat IPC: 2.68044 cumulative IPC: 2.50602 (Simulation time: 0 hr 58 min 49 sec) 
Heartbeat CPU 0 instructions: 1160000003 cycles: 433023625 heartbeat IPC: 2.67118 cumulative IPC: 2.50764 (Simulation time: 0 hr 59 min 17 sec) 
Heartbeat CPU 0 instructions: 1170000000 cycles: 436748242 heartbeat IPC: 2.68484 cumulative IPC: 2.50934 (Simulation time: 0 hr 59 min 44 sec) 
Heartbeat CPU 0 instructions: 1180000002 cycles: 440469157 heartbeat IPC: 2.68751 cumulative IPC: 2.51104 (Simulation time: 1 hr 0 min 12 sec) 
Heartbeat CPU 0 instructions: 1190000003 cycles: 444159717 heartbeat IPC: 2.70962 cumulative IPC: 2.5129 (Simulation time: 1 hr 0 min 40 sec) 
Heartbeat CPU 0 instructions: 1200000000 cycles: 447856442 heartbeat IPC: 2.7051 cumulative IPC: 2.51469 (Simulation time: 1 hr 1 min 7 sec) 
Finished CPU 0 instructions: 1000000003 cycles: 397663613 cumulative IPC: 2.51469 (Simulation time: 1 hr 1 min 7 sec) 

ChampSim completed all CPUs

Region of Interest Statistics

CPU 0 cumulative IPC: 2.51469 instructions: 1000000003 cycles: 397663613
cpu0_DTLB TOTAL     ACCESS:  122475766  HIT:  121408830  MISS:    1066936
cpu0_DTLB LOAD      ACCESS:   86473599  HIT:   85787377  MISS:     686222
cpu0_DTLB RFO       ACCESS:   36002167  HIT:   35621453  MISS:     380714
cpu0_DTLB PREFETCH  ACCESS:          0  HIT:          0  MISS:          0
cpu0_DTLB WRITEBACK ACCESS:          0  HIT:          0  MISS:          0
cpu0_DTLB TRANSLATION ACCESS:          0  HIT:          0  MISS:          0
cpu0_DTLB PREFETCH  REQUESTED:          0  ISSUED:          0  USEFUL:          0  USELESS:          0
cpu0_DTLB AVERAGE MISS LATENCY: 10.6746 cycles
cpu0_ITLB TOTAL     ACCESS:   64376797  HIT:   64375330  MISS:       1467
cpu0_ITLB LOAD      ACCESS:   64376797  HIT:   64375330  MISS:       1467
cpu0_ITLB RFO       ACCESS:          0  HIT:          0  MISS:          0
cpu0_ITLB PREFETCH  ACCESS:          0  HIT:          0  MISS:          0
cpu0_ITLB WRITEBACK ACCESS:          0  HIT:          0  MISS:          0
cpu0_ITLB TRANSLATION ACCESS:          0  HIT:          0  MISS:          0
cpu0_ITLB PREFETCH  REQUESTED:          0  ISSUED:          0  USEFUL:          0  USELESS:          0
cpu0_ITLB AVERAGE MISS LATENCY: 30.1166 cycles
cpu0_L1I TOTAL     ACCESS:   26421256  HIT:   24793161  MISS:    1628095
cpu0_L1I LOAD      ACCESS:   26421256  HIT:   24793161  MISS:    1628095
cpu0_L1I RFO       ACCESS:          0  HIT:          0  MISS:          0
cpu0_L1I PREFETCH  ACCESS:          0  HIT:          0  MISS:          0
cpu0_L1I WRITEBACK ACCESS:          0  HIT:          0  MISS:          0
cpu0_L1I TRANSLATION ACCESS:          0  HIT:          0  MISS:          0
cpu0_L1I PREFETCH  REQUESTED:          0  ISSUED:          0  USEFUL:          0  USELESS:          0
cpu0_L1I AVERAGE MISS LATENCY: 12.3766 cycles
cpu0_STLB TOTAL     ACCESS:    1068403  HIT:    1052689  MISS:      15714
cpu0_STLB LOAD      ACCESS:     687689  HIT:     677939  MISS:       9750
cpu0_STLB RFO       ACCESS:     380714  HIT:     374750  MISS:       5964
cpu0_STLB PREFETCH  ACCESS:          0  HIT:          0  MISS:          0
cpu0_STLB WRITEBACK ACCESS:          0  HIT:          0  MISS:          0
cpu0_STLB TRANSLATION ACCESS:          0  HIT:          0  MISS:          0
cpu0_STLB PREFETCH  REQUESTED:          0  ISSUED:          0  USEFUL:          0  USELESS:          0
cpu0_STLB AVERAGE MISS LATENCY: 111.994 cycles
cpu0_L1D TOTAL     ACCESS:  147941041  HIT:  146072846  MISS:    1868195
cpu0_L1D LOAD      ACCESS:   75092861  HIT:   73774177  MISS:    1318684
cpu0_L1D RFO       ACCESS:   72833682  HIT:   72285634  MISS:     548048
cpu0_L1D PREFETCH  ACCESS:          0  HIT:          0  MISS:          0
cpu0_L1D WRITEBACK ACCESS:          0  HIT:          0  MISS:          0
cpu0_L1D TRANSLATION ACCESS:      14498  HIT:      13035  MISS:       1463
cpu0_L1D PREFETCH  REQUESTED:          0  ISSUED:          0  USEFUL:          0  USELESS:          0
cpu0_L1D AVERAGE MISS LATENCY: 192.339 cycles
cpu0_L2C TOTAL     ACCESS:    6399514  HIT:    5139109  MISS:    1260405
cpu0_L2C LOAD      ACCESS:    2946756  HIT:    2224045  MISS:     722711
cpu0_L2C RFO       ACCESS:     543652  HIT:     146044  MISS:     397608
cpu0_L2C PREFETCH  ACCESS:    2248204  HIT:    2109525  MISS:     138679
cpu0_L2C WRITEBACK ACCESS:     659439  HIT:     658219  MISS:       1220
cpu0_L2C TRANSLATION ACCESS:       1463  HIT:       1276  MISS:        187
cpu0_L2C PREFETCH  REQUESTED:    7996902  ISSUED:    5725468  USEFUL:     274428  USELESS:       1708
cpu0_L2C AVERAGE MISS LATENCY: 235.719 cycles
LLC TOTAL     ACCESS:    3720236  HIT:    2613394  MISS:    1106842
LLC LOAD      ACCESS:     585285  HIT:     377603  MISS:     207682
LLC RFO       ACCESS:     397589  HIT:       7609  MISS:     389980
LLC PREFETCH  ACCESS:    2251858  HIT:    1744236  MISS:     507622
LLC WRITEBACK ACCESS:     485317  HIT:     483862  MISS:       1455
LLC TRANSLATION ACCESS:        187  HIT:         84  MISS:        103
LLC PREFETCH  REQUESTED:          0  ISSUED:          0  USEFUL:          0  USELESS:          0
LLC AVERAGE MISS LATENCY: 489.682 cycles

DRAM Statistics
 CHANNEL 0
 RQ ROW_BUFFER_HIT:     123254  ROW_BUFFER_MISS:     981862
 DBUS AVG_CONGESTED_CYCLE:    3.97111
 WQ ROW_BUFFER_HIT:      53864  ROW_BUFFER_MISS:     438096  FULL:          0


CPU 0 Branch Prediction Accuracy: 85.7768% MPKI: 5.31698 Average ROB Occupancy at Mispredict: 107.392
Branch type MPKI
BRANCH_DIRECT_JUMP: 0.000117
BRANCH_INDIRECT: 0.000602
BRANCH_CONDITIONAL: 5.23547
BRANCH_DIRECT_CALL: 0.000215
BRANCH_INDIRECT_CALL: 0.014074
BRANCH_RETURN: 0.0665

