Initialize SIGNATURE TABLE
ST_SET: 1
ST_WAY: 256
ST_TAG_BIT: 16
ST_TAG_MASK: ffff

Initialize PATTERN TABLE
PT_SET: 512
PT_WAY: 4
SIG_DELTA_BIT: 7
C_SIG_BIT: 4
C_DELTA_BIT: 4

Initialize PREFETCH FILTER
FILTER_SET: 1024

*** ChampSim Multicore Out-of-Order Simulator ***

Warmup Instructions: 200000000
Simulation Instructions: 1000000000
Number of CPUs: 1
Off-chip DRAM Size: 4 GiB Channels: 1 Width: 64-bit Data Rate: 3200 MT/s

VirtualMemory physical capacity: 8588881920 num_ppages: 2096895
VirtualMemory page size: 4096 log2_page_size: 12

CPU 0 runs /home/faculty/p/pgratz/dpc3_traces/603.bwaves_s-3699B.champsimtrace.xz
CPU 0 Bimodal branch predictor
Basic BTB sets: 1024 ways: 8 indirect buffer size: 4096 RAS size: 64
WARNING: The extended signature CACHE::prefetch_line(ip, base_addr, pf_addr, fill_this_level, prefetch_metadata) is deprecated.
WARNING: Use CACHE::prefetch_line(pf_addr, fill_this_level, prefetch_metadata) instead.
Heartbeat CPU 0 instructions: 10000000 cycles: 2685176 heartbeat IPC: 3.72415 cumulative IPC: 3.72415 (Simulation time: 0 hr 0 min 30 sec) 
Heartbeat CPU 0 instructions: 20000002 cycles: 5318729 heartbeat IPC: 3.79715 cumulative IPC: 3.7603 (Simulation time: 0 hr 1 min 2 sec) 
Heartbeat CPU 0 instructions: 30000003 cycles: 7940286 heartbeat IPC: 3.81453 cumulative IPC: 3.7782 (Simulation time: 0 hr 1 min 33 sec) 
Heartbeat CPU 0 instructions: 40000003 cycles: 10625409 heartbeat IPC: 3.72422 cumulative IPC: 3.76456 (Simulation time: 0 hr 2 min 3 sec) 
Heartbeat CPU 0 instructions: 50000002 cycles: 13309261 heartbeat IPC: 3.72599 cumulative IPC: 3.75678 (Simulation time: 0 hr 2 min 34 sec) 
Heartbeat CPU 0 instructions: 60000004 cycles: 15989480 heartbeat IPC: 3.73104 cumulative IPC: 3.75247 (Simulation time: 0 hr 3 min 5 sec) 
Heartbeat CPU 0 instructions: 70000000 cycles: 18666391 heartbeat IPC: 3.73565 cumulative IPC: 3.75006 (Simulation time: 0 hr 3 min 35 sec) 
Heartbeat CPU 0 instructions: 80000004 cycles: 21342374 heartbeat IPC: 3.73695 cumulative IPC: 3.74841 (Simulation time: 0 hr 4 min 6 sec) 
Heartbeat CPU 0 instructions: 90000001 cycles: 24020486 heartbeat IPC: 3.73397 cumulative IPC: 3.7468 (Simulation time: 0 hr 4 min 36 sec) 
Heartbeat CPU 0 instructions: 100000001 cycles: 26682891 heartbeat IPC: 3.756 cumulative IPC: 3.74772 (Simulation time: 0 hr 5 min 7 sec) 
Heartbeat CPU 0 instructions: 110000002 cycles: 29347080 heartbeat IPC: 3.75349 cumulative IPC: 3.74824 (Simulation time: 0 hr 5 min 37 sec) 
Heartbeat CPU 0 instructions: 120000002 cycles: 32009021 heartbeat IPC: 3.75666 cumulative IPC: 3.74894 (Simulation time: 0 hr 6 min 8 sec) 
Heartbeat CPU 0 instructions: 130000000 cycles: 34661405 heartbeat IPC: 3.77019 cumulative IPC: 3.75057 (Simulation time: 0 hr 6 min 38 sec) 
Heartbeat CPU 0 instructions: 140000000 cycles: 37292418 heartbeat IPC: 3.80082 cumulative IPC: 3.75411 (Simulation time: 0 hr 7 min 8 sec) 
Heartbeat CPU 0 instructions: 150000004 cycles: 39945242 heartbeat IPC: 3.76957 cumulative IPC: 3.75514 (Simulation time: 0 hr 7 min 38 sec) 
Heartbeat CPU 0 instructions: 160000001 cycles: 42603594 heartbeat IPC: 3.76173 cumulative IPC: 3.75555 (Simulation time: 0 hr 8 min 8 sec) 
Heartbeat CPU 0 instructions: 170000002 cycles: 45238929 heartbeat IPC: 3.79458 cumulative IPC: 3.75783 (Simulation time: 0 hr 8 min 38 sec) 
Heartbeat CPU 0 instructions: 180000003 cycles: 47874305 heartbeat IPC: 3.79453 cumulative IPC: 3.75985 (Simulation time: 0 hr 9 min 8 sec) 
Heartbeat CPU 0 instructions: 190000003 cycles: 50516477 heartbeat IPC: 3.78477 cumulative IPC: 3.76115 (Simulation time: 0 hr 9 min 38 sec) 
Heartbeat CPU 0 instructions: 200000000 cycles: 53183763 heartbeat IPC: 3.74913 cumulative IPC: 3.76055 (Simulation time: 0 hr 10 min 9 sec) 

Warmup complete CPU 0 instructions: 200000005 cycles: 53183764 (Simulation time: 0 hr 10 min 9 sec) 

Heartbeat CPU 0 instructions: 210000000 cycles: 59316432 heartbeat IPC: 1.63061 cumulative IPC: 1.63061 (Simulation time: 0 hr 10 min 36 sec) 
Heartbeat CPU 0 instructions: 220000003 cycles: 65532087 heartbeat IPC: 1.60884 cumulative IPC: 1.61965 (Simulation time: 0 hr 11 min 3 sec) 
Heartbeat CPU 0 instructions: 230000001 cycles: 71647326 heartbeat IPC: 1.63526 cumulative IPC: 1.62482 (Simulation time: 0 hr 11 min 30 sec) 
Heartbeat CPU 0 instructions: 240000000 cycles: 77789107 heartbeat IPC: 1.62819 cumulative IPC: 1.62566 (Simulation time: 0 hr 11 min 57 sec) 
Heartbeat CPU 0 instructions: 250000001 cycles: 83847288 heartbeat IPC: 1.65066 cumulative IPC: 1.6306 (Simulation time: 0 hr 12 min 24 sec) 
Heartbeat CPU 0 instructions: 260000000 cycles: 89950975 heartbeat IPC: 1.63835 cumulative IPC: 1.63189 (Simulation time: 0 hr 12 min 51 sec) 
Heartbeat CPU 0 instructions: 270000000 cycles: 96096614 heartbeat IPC: 1.62717 cumulative IPC: 1.63121 (Simulation time: 0 hr 13 min 18 sec) 
Heartbeat CPU 0 instructions: 280000003 cycles: 102111595 heartbeat IPC: 1.66252 cumulative IPC: 1.63506 (Simulation time: 0 hr 13 min 45 sec) 
Heartbeat CPU 0 instructions: 290000002 cycles: 108224301 heartbeat IPC: 1.63594 cumulative IPC: 1.63516 (Simulation time: 0 hr 14 min 12 sec) 
Heartbeat CPU 0 instructions: 300000000 cycles: 114363288 heartbeat IPC: 1.62893 cumulative IPC: 1.63453 (Simulation time: 0 hr 14 min 39 sec) 
Heartbeat CPU 0 instructions: 310000001 cycles: 120380940 heartbeat IPC: 1.66178 cumulative IPC: 1.63697 (Simulation time: 0 hr 15 min 6 sec) 
Heartbeat CPU 0 instructions: 320000003 cycles: 126533288 heartbeat IPC: 1.6254 cumulative IPC: 1.636 (Simulation time: 0 hr 15 min 32 sec) 
Heartbeat CPU 0 instructions: 330000003 cycles: 132711131 heartbeat IPC: 1.61869 cumulative IPC: 1.63466 (Simulation time: 0 hr 15 min 59 sec) 
Heartbeat CPU 0 instructions: 340000000 cycles: 138899861 heartbeat IPC: 1.61584 cumulative IPC: 1.6333 (Simulation time: 0 hr 16 min 26 sec) 
Heartbeat CPU 0 instructions: 350000002 cycles: 145034337 heartbeat IPC: 1.63013 cumulative IPC: 1.63309 (Simulation time: 0 hr 16 min 54 sec) 
Heartbeat CPU 0 instructions: 360000000 cycles: 151267530 heartbeat IPC: 1.60431 cumulative IPC: 1.63126 (Simulation time: 0 hr 17 min 21 sec) 
Heartbeat CPU 0 instructions: 370000001 cycles: 157301740 heartbeat IPC: 1.65722 cumulative IPC: 1.63276 (Simulation time: 0 hr 17 min 48 sec) 
Heartbeat CPU 0 instructions: 380000000 cycles: 163582797 heartbeat IPC: 1.59209 cumulative IPC: 1.63045 (Simulation time: 0 hr 18 min 15 sec) 
Heartbeat CPU 0 instructions: 390000004 cycles: 169709323 heartbeat IPC: 1.63225 cumulative IPC: 1.63054 (Simulation time: 0 hr 18 min 42 sec) 
Heartbeat CPU 0 instructions: 400000001 cycles: 176035778 heartbeat IPC: 1.58066 cumulative IPC: 1.62797 (Simulation time: 0 hr 19 min 9 sec) 
Heartbeat CPU 0 instructions: 410000001 cycles: 182261371 heartbeat IPC: 1.60627 cumulative IPC: 1.62693 (Simulation time: 0 hr 19 min 36 sec) 
Heartbeat CPU 0 instructions: 420000000 cycles: 188434230 heartbeat IPC: 1.61999 cumulative IPC: 1.62661 (Simulation time: 0 hr 20 min 3 sec) 
Heartbeat CPU 0 instructions: 430000000 cycles: 194605401 heartbeat IPC: 1.62044 cumulative IPC: 1.62634 (Simulation time: 0 hr 20 min 30 sec) 
Heartbeat CPU 0 instructions: 440000003 cycles: 200855173 heartbeat IPC: 1.60006 cumulative IPC: 1.62523 (Simulation time: 0 hr 20 min 57 sec) 
Heartbeat CPU 0 instructions: 450000004 cycles: 206905245 heartbeat IPC: 1.65287 cumulative IPC: 1.62632 (Simulation time: 0 hr 21 min 23 sec) 
Heartbeat CPU 0 instructions: 460000002 cycles: 212954333 heartbeat IPC: 1.65314 cumulative IPC: 1.62733 (Simulation time: 0 hr 21 min 50 sec) 
Heartbeat CPU 0 instructions: 470000003 cycles: 218887435 heartbeat IPC: 1.68546 cumulative IPC: 1.62941 (Simulation time: 0 hr 22 min 17 sec) 
Heartbeat CPU 0 instructions: 480000001 cycles: 224875428 heartbeat IPC: 1.67001 cumulative IPC: 1.63083 (Simulation time: 0 hr 22 min 43 sec) 
Heartbeat CPU 0 instructions: 490000003 cycles: 230812897 heartbeat IPC: 1.68422 cumulative IPC: 1.63262 (Simulation time: 0 hr 23 min 10 sec) 
Heartbeat CPU 0 instructions: 500000000 cycles: 236746800 heartbeat IPC: 1.68523 cumulative IPC: 1.63432 (Simulation time: 0 hr 23 min 37 sec) 
Heartbeat CPU 0 instructions: 510000003 cycles: 242678527 heartbeat IPC: 1.68585 cumulative IPC: 1.63593 (Simulation time: 0 hr 24 min 3 sec) 
Heartbeat CPU 0 instructions: 520000001 cycles: 248626462 heartbeat IPC: 1.68126 cumulative IPC: 1.63731 (Simulation time: 0 hr 24 min 30 sec) 
Heartbeat CPU 0 instructions: 530000000 cycles: 254770033 heartbeat IPC: 1.62772 cumulative IPC: 1.63702 (Simulation time: 0 hr 25 min 9 sec) 
Heartbeat CPU 0 instructions: 540000000 cycles: 260808486 heartbeat IPC: 1.65605 cumulative IPC: 1.63757 (Simulation time: 0 hr 25 min 45 sec) 
Heartbeat CPU 0 instructions: 550000000 cycles: 266741467 heartbeat IPC: 1.68549 cumulative IPC: 1.6389 (Simulation time: 0 hr 26 min 11 sec) 
Heartbeat CPU 0 instructions: 560000003 cycles: 272681768 heartbeat IPC: 1.68342 cumulative IPC: 1.64011 (Simulation time: 0 hr 26 min 38 sec) 
Heartbeat CPU 0 instructions: 570000000 cycles: 278616264 heartbeat IPC: 1.68506 cumulative IPC: 1.64129 (Simulation time: 0 hr 27 min 4 sec) 
Heartbeat CPU 0 instructions: 580000002 cycles: 284536479 heartbeat IPC: 1.68913 cumulative IPC: 1.64251 (Simulation time: 0 hr 27 min 31 sec) 
Heartbeat CPU 0 instructions: 590000000 cycles: 290474584 heartbeat IPC: 1.68404 cumulative IPC: 1.64355 (Simulation time: 0 hr 27 min 58 sec) 
Heartbeat CPU 0 instructions: 600000001 cycles: 296412554 heartbeat IPC: 1.68408 cumulative IPC: 1.64454 (Simulation time: 0 hr 28 min 24 sec) 
Heartbeat CPU 0 instructions: 610000000 cycles: 302337826 heartbeat IPC: 1.68769 cumulative IPC: 1.64557 (Simulation time: 0 hr 28 min 51 sec) 
Heartbeat CPU 0 instructions: 620000004 cycles: 308285469 heartbeat IPC: 1.68134 cumulative IPC: 1.6464 (Simulation time: 0 hr 29 min 18 sec) 
Heartbeat CPU 0 instructions: 630000000 cycles: 314227470 heartbeat IPC: 1.68293 cumulative IPC: 1.64723 (Simulation time: 0 hr 29 min 44 sec) 
Heartbeat CPU 0 instructions: 640000000 cycles: 320172763 heartbeat IPC: 1.682 cumulative IPC: 1.64801 (Simulation time: 0 hr 30 min 11 sec) 
Heartbeat CPU 0 instructions: 650000000 cycles: 326107363 heartbeat IPC: 1.68503 cumulative IPC: 1.64881 (Simulation time: 0 hr 30 min 37 sec) 
Heartbeat CPU 0 instructions: 660000003 cycles: 332155495 heartbeat IPC: 1.6534 cumulative IPC: 1.64891 (Simulation time: 0 hr 31 min 4 sec) 
Heartbeat CPU 0 instructions: 670000002 cycles: 338319419 heartbeat IPC: 1.62234 cumulative IPC: 1.64834 (Simulation time: 0 hr 31 min 31 sec) 
Heartbeat CPU 0 instructions: 680000000 cycles: 344548777 heartbeat IPC: 1.6053 cumulative IPC: 1.64742 (Simulation time: 0 hr 31 min 59 sec) 
Heartbeat CPU 0 instructions: 690000000 cycles: 350720496 heartbeat IPC: 1.62029 cumulative IPC: 1.64686 (Simulation time: 0 hr 32 min 26 sec) 
Heartbeat CPU 0 instructions: 700000001 cycles: 356817590 heartbeat IPC: 1.64013 cumulative IPC: 1.64672 (Simulation time: 0 hr 32 min 53 sec) 
Heartbeat CPU 0 instructions: 710000000 cycles: 363054162 heartbeat IPC: 1.60344 cumulative IPC: 1.64585 (Simulation time: 0 hr 33 min 20 sec) 
Heartbeat CPU 0 instructions: 720000000 cycles: 369451959 heartbeat IPC: 1.56304 cumulative IPC: 1.64417 (Simulation time: 0 hr 33 min 47 sec) 
Heartbeat CPU 0 instructions: 730000003 cycles: 375718714 heartbeat IPC: 1.59572 cumulative IPC: 1.64323 (Simulation time: 0 hr 34 min 14 sec) 
Heartbeat CPU 0 instructions: 740000001 cycles: 381863211 heartbeat IPC: 1.62747 cumulative IPC: 1.64294 (Simulation time: 0 hr 34 min 41 sec) 
Heartbeat CPU 0 instructions: 750000002 cycles: 388122282 heartbeat IPC: 1.59768 cumulative IPC: 1.64209 (Simulation time: 0 hr 35 min 8 sec) 
Heartbeat CPU 0 instructions: 760000000 cycles: 394279741 heartbeat IPC: 1.62405 cumulative IPC: 1.64177 (Simulation time: 0 hr 35 min 35 sec) 
Heartbeat CPU 0 instructions: 770000000 cycles: 400324604 heartbeat IPC: 1.6543 cumulative IPC: 1.64198 (Simulation time: 0 hr 36 min 2 sec) 
Heartbeat CPU 0 instructions: 780000003 cycles: 406463452 heartbeat IPC: 1.62897 cumulative IPC: 1.64176 (Simulation time: 0 hr 36 min 29 sec) 
Heartbeat CPU 0 instructions: 790000000 cycles: 412486235 heartbeat IPC: 1.66036 cumulative IPC: 1.64207 (Simulation time: 0 hr 36 min 56 sec) 
Heartbeat CPU 0 instructions: 800000003 cycles: 418609834 heartbeat IPC: 1.63303 cumulative IPC: 1.64192 (Simulation time: 0 hr 37 min 23 sec) 
Heartbeat CPU 0 instructions: 810000001 cycles: 424725000 heartbeat IPC: 1.63528 cumulative IPC: 1.64181 (Simulation time: 0 hr 37 min 51 sec) 
Heartbeat CPU 0 instructions: 820000001 cycles: 430831001 heartbeat IPC: 1.63773 cumulative IPC: 1.64174 (Simulation time: 0 hr 38 min 17 sec) 
Heartbeat CPU 0 instructions: 830000000 cycles: 436855312 heartbeat IPC: 1.65994 cumulative IPC: 1.64203 (Simulation time: 0 hr 38 min 44 sec) 
Heartbeat CPU 0 instructions: 840000004 cycles: 442984623 heartbeat IPC: 1.63151 cumulative IPC: 1.64186 (Simulation time: 0 hr 39 min 12 sec) 
Heartbeat CPU 0 instructions: 850000002 cycles: 449001434 heartbeat IPC: 1.66201 cumulative IPC: 1.64217 (Simulation time: 0 hr 39 min 39 sec) 
Heartbeat CPU 0 instructions: 860000004 cycles: 455132790 heartbeat IPC: 1.63096 cumulative IPC: 1.642 (Simulation time: 0 hr 40 min 6 sec) 
Heartbeat CPU 0 instructions: 870000000 cycles: 461158506 heartbeat IPC: 1.65955 cumulative IPC: 1.64226 (Simulation time: 0 hr 40 min 33 sec) 
Heartbeat CPU 0 instructions: 880000000 cycles: 467327624 heartbeat IPC: 1.62098 cumulative IPC: 1.64194 (Simulation time: 0 hr 41 min 0 sec) 
Heartbeat CPU 0 instructions: 890000002 cycles: 473353691 heartbeat IPC: 1.65946 cumulative IPC: 1.64219 (Simulation time: 0 hr 41 min 27 sec) 
Heartbeat CPU 0 instructions: 900000001 cycles: 479488038 heartbeat IPC: 1.63017 cumulative IPC: 1.64202 (Simulation time: 0 hr 41 min 54 sec) 
Heartbeat CPU 0 instructions: 910000000 cycles: 485665015 heartbeat IPC: 1.61891 cumulative IPC: 1.64169 (Simulation time: 0 hr 42 min 21 sec) 
Heartbeat CPU 0 instructions: 920000002 cycles: 491711345 heartbeat IPC: 1.6539 cumulative IPC: 1.64186 (Simulation time: 0 hr 42 min 48 sec) 
Heartbeat CPU 0 instructions: 930000002 cycles: 497746309 heartbeat IPC: 1.65701 cumulative IPC: 1.64206 (Simulation time: 0 hr 43 min 15 sec) 
Heartbeat CPU 0 instructions: 940000003 cycles: 503934208 heartbeat IPC: 1.61606 cumulative IPC: 1.64171 (Simulation time: 0 hr 43 min 43 sec) 
Heartbeat CPU 0 instructions: 950000002 cycles: 510234462 heartbeat IPC: 1.58724 cumulative IPC: 1.64096 (Simulation time: 0 hr 44 min 10 sec) 
Heartbeat CPU 0 instructions: 960000000 cycles: 516400257 heartbeat IPC: 1.62185 cumulative IPC: 1.6407 (Simulation time: 0 hr 44 min 37 sec) 
Heartbeat CPU 0 instructions: 970000002 cycles: 522595654 heartbeat IPC: 1.6141 cumulative IPC: 1.64035 (Simulation time: 0 hr 45 min 4 sec) 
Heartbeat CPU 0 instructions: 980000003 cycles: 529066267 heartbeat IPC: 1.54545 cumulative IPC: 1.63906 (Simulation time: 0 hr 45 min 31 sec) 
Heartbeat CPU 0 instructions: 990000002 cycles: 535195271 heartbeat IPC: 1.63159 cumulative IPC: 1.63897 (Simulation time: 0 hr 45 min 58 sec) 
Heartbeat CPU 0 instructions: 1000000000 cycles: 541445313 heartbeat IPC: 1.59999 cumulative IPC: 1.63847 (Simulation time: 0 hr 46 min 25 sec) 
Heartbeat CPU 0 instructions: 1010000000 cycles: 547606677 heartbeat IPC: 1.62302 cumulative IPC: 1.63827 (Simulation time: 0 hr 46 min 53 sec) 
Heartbeat CPU 0 instructions: 1020000003 cycles: 553629249 heartbeat IPC: 1.66042 cumulative IPC: 1.63854 (Simulation time: 0 hr 47 min 19 sec) 
Heartbeat CPU 0 instructions: 1030000002 cycles: 559696195 heartbeat IPC: 1.64828 cumulative IPC: 1.63866 (Simulation time: 0 hr 47 min 46 sec) 
Heartbeat CPU 0 instructions: 1040000002 cycles: 565691322 heartbeat IPC: 1.66802 cumulative IPC: 1.639 (Simulation time: 0 hr 48 min 13 sec) 
Heartbeat CPU 0 instructions: 1050000002 cycles: 571621838 heartbeat IPC: 1.68619 cumulative IPC: 1.63954 (Simulation time: 0 hr 48 min 40 sec) 
Heartbeat CPU 0 instructions: 1060000000 cycles: 577582577 heartbeat IPC: 1.67764 cumulative IPC: 1.63997 (Simulation time: 0 hr 49 min 7 sec) 
Heartbeat CPU 0 instructions: 1070000001 cycles: 583516657 heartbeat IPC: 1.68518 cumulative IPC: 1.64048 (Simulation time: 0 hr 49 min 34 sec) 
Heartbeat CPU 0 instructions: 1080000002 cycles: 589435423 heartbeat IPC: 1.68954 cumulative IPC: 1.64102 (Simulation time: 0 hr 50 min 1 sec) 
Heartbeat CPU 0 instructions: 1090000004 cycles: 595369502 heartbeat IPC: 1.68518 cumulative IPC: 1.6415 (Simulation time: 0 hr 50 min 28 sec) 
Heartbeat CPU 0 instructions: 1100000002 cycles: 601316427 heartbeat IPC: 1.68154 cumulative IPC: 1.64194 (Simulation time: 0 hr 50 min 54 sec) 
Heartbeat CPU 0 instructions: 1110000004 cycles: 607235724 heartbeat IPC: 1.68939 cumulative IPC: 1.64245 (Simulation time: 0 hr 51 min 21 sec) 
Heartbeat CPU 0 instructions: 1120000000 cycles: 613168940 heartbeat IPC: 1.68543 cumulative IPC: 1.6429 (Simulation time: 0 hr 51 min 48 sec) 
Heartbeat CPU 0 instructions: 1130000001 cycles: 619110526 heartbeat IPC: 1.68305 cumulative IPC: 1.64332 (Simulation time: 0 hr 52 min 15 sec) 
Heartbeat CPU 0 instructions: 1140000003 cycles: 624955004 heartbeat IPC: 1.71102 cumulative IPC: 1.64401 (Simulation time: 0 hr 52 min 42 sec) 
Heartbeat CPU 0 instructions: 1150000002 cycles: 630747145 heartbeat IPC: 1.72648 cumulative IPC: 1.64484 (Simulation time: 0 hr 53 min 9 sec) 
Heartbeat CPU 0 instructions: 1160000000 cycles: 637070305 heartbeat IPC: 1.58149 cumulative IPC: 1.64416 (Simulation time: 0 hr 53 min 57 sec) 
Heartbeat CPU 0 instructions: 1170000002 cycles: 642961801 heartbeat IPC: 1.69736 cumulative IPC: 1.64469 (Simulation time: 0 hr 54 min 24 sec) 
Heartbeat CPU 0 instructions: 1180000002 cycles: 648897978 heartbeat IPC: 1.68459 cumulative IPC: 1.64508 (Simulation time: 0 hr 54 min 51 sec) 
Heartbeat CPU 0 instructions: 1190000004 cycles: 654814376 heartbeat IPC: 1.69022 cumulative IPC: 1.64553 (Simulation time: 0 hr 55 min 18 sec) 
Heartbeat CPU 0 instructions: 1200000000 cycles: 660747377 heartbeat IPC: 1.68549 cumulative IPC: 1.64592 (Simulation time: 0 hr 55 min 45 sec) 
Finished CPU 0 instructions: 1000000000 cycles: 607563616 cumulative IPC: 1.64592 (Simulation time: 0 hr 55 min 45 sec) 

ChampSim completed all CPUs

Region of Interest Statistics

CPU 0 cumulative IPC: 1.64592 instructions: 1000000000 cycles: 607563616
cpu0_DTLB TOTAL     ACCESS:  147683046  HIT:  147679758  MISS:       3288
cpu0_DTLB LOAD      ACCESS:  125389638  HIT:  125389009  MISS:        629
cpu0_DTLB RFO       ACCESS:   22293408  HIT:   22290749  MISS:       2659
cpu0_DTLB PREFETCH  ACCESS:          0  HIT:          0  MISS:          0
cpu0_DTLB WRITEBACK ACCESS:          0  HIT:          0  MISS:          0
cpu0_DTLB TRANSLATION ACCESS:          0  HIT:          0  MISS:          0
cpu0_DTLB PREFETCH  REQUESTED:          0  ISSUED:          0  USEFUL:          0  USELESS:          0
cpu0_DTLB AVERAGE MISS LATENCY: 202.189 cycles
cpu0_ITLB TOTAL     ACCESS:  119391400  HIT:  119391400  MISS:          0
cpu0_ITLB LOAD      ACCESS:  119391400  HIT:  119391400  MISS:          0
cpu0_ITLB RFO       ACCESS:          0  HIT:          0  MISS:          0
cpu0_ITLB PREFETCH  ACCESS:          0  HIT:          0  MISS:          0
cpu0_ITLB WRITEBACK ACCESS:          0  HIT:          0  MISS:          0
cpu0_ITLB TRANSLATION ACCESS:          0  HIT:          0  MISS:          0
cpu0_ITLB PREFETCH  REQUESTED:          0  ISSUED:          0  USEFUL:          0  USELESS:          0
cpu0_ITLB AVERAGE MISS LATENCY: -nan cycles
cpu0_L1I TOTAL     ACCESS:    5681930  HIT:    5681930  MISS:          0
cpu0_L1I LOAD      ACCESS:    5681930  HIT:    5681930  MISS:          0
cpu0_L1I RFO       ACCESS:          0  HIT:          0  MISS:          0
cpu0_L1I PREFETCH  ACCESS:          0  HIT:          0  MISS:          0
cpu0_L1I WRITEBACK ACCESS:          0  HIT:          0  MISS:          0
cpu0_L1I TRANSLATION ACCESS:          0  HIT:          0  MISS:          0
cpu0_L1I PREFETCH  REQUESTED:          0  ISSUED:          0  USEFUL:          0  USELESS:          0
cpu0_L1I AVERAGE MISS LATENCY: -nan cycles
cpu0_STLB TOTAL     ACCESS:       3288  HIT:        141  MISS:       3147
cpu0_STLB LOAD      ACCESS:        629  HIT:        100  MISS:        529
cpu0_STLB RFO       ACCESS:       2659  HIT:         41  MISS:       2618
cpu0_STLB PREFETCH  ACCESS:          0  HIT:          0  MISS:          0
cpu0_STLB WRITEBACK ACCESS:          0  HIT:          0  MISS:          0
cpu0_STLB TRANSLATION ACCESS:          0  HIT:          0  MISS:          0
cpu0_STLB PREFETCH  REQUESTED:          0  ISSUED:          0  USEFUL:          0  USELESS:          0
cpu0_STLB AVERAGE MISS LATENCY: 201.845 cycles
cpu0_L1D TOTAL     ACCESS:  166065983  HIT:  165862295  MISS:     203688
cpu0_L1D LOAD      ACCESS:  128644532  HIT:  128608811  MISS:      35721
cpu0_L1D RFO       ACCESS:   37418306  HIT:   37250449  MISS:     167857
cpu0_L1D PREFETCH  ACCESS:          0  HIT:          0  MISS:          0
cpu0_L1D WRITEBACK ACCESS:          0  HIT:          0  MISS:          0
cpu0_L1D TRANSLATION ACCESS:       3145  HIT:       3035  MISS:        110
cpu0_L1D PREFETCH  REQUESTED:          0  ISSUED:          0  USEFUL:          0  USELESS:          0
cpu0_L1D AVERAGE MISS LATENCY: 822.169 cycles
cpu0_L2C TOTAL     ACCESS:     397395  HIT:     196192  MISS:     201203
cpu0_L2C LOAD      ACCESS:      35721  HIT:      26750  MISS:       8971
cpu0_L2C RFO       ACCESS:     167857  HIT:        450  MISS:     167407
cpu0_L2C PREFETCH  ACCESS:      26489  HIT:       1891  MISS:      24598
cpu0_L2C WRITEBACK ACCESS:     167218  HIT:     166998  MISS:        220
cpu0_L2C TRANSLATION ACCESS:        110  HIT:        103  MISS:          7
cpu0_L2C PREFETCH  REQUESTED:     306914  ISSUED:     305203  USEFUL:      24602  USELESS:          3
cpu0_L2C AVERAGE MISS LATENCY: 825.35 cycles
LLC TOTAL     ACCESS:     637025  HIT:     435808  MISS:     201217
LLC LOAD      ACCESS:       8963  HIT:       8325  MISS:        638
LLC RFO       ACCESS:     167407  HIT:          0  MISS:     167407
LLC PREFETCH  ACCESS:     293789  HIT:     260800  MISS:      32989
LLC WRITEBACK ACCESS:     166859  HIT:     166683  MISS:        176
LLC TRANSLATION ACCESS:          7  HIT:          0  MISS:          7
LLC PREFETCH  REQUESTED:          0  ISSUED:          0  USEFUL:          0  USELESS:          0
LLC AVERAGE MISS LATENCY: 966.634 cycles

DRAM Statistics
 CHANNEL 0
 RQ ROW_BUFFER_HIT:       6900  ROW_BUFFER_MISS:     194141
 DBUS AVG_CONGESTED_CYCLE:    3.96752
 WQ ROW_BUFFER_HIT:      17453  ROW_BUFFER_MISS:     148877  FULL:          0


CPU 0 Branch Prediction Accuracy: 80.5169% MPKI: 28.2727 Average ROB Occupancy at Mispredict: 47.3672
Branch type MPKI
BRANCH_DIRECT_JUMP: 0
BRANCH_INDIRECT: 0
BRANCH_CONDITIONAL: 28.2727
BRANCH_DIRECT_CALL: 0
BRANCH_INDIRECT_CALL: 0
BRANCH_RETURN: 0

