Initialize SIGNATURE TABLE
ST_SET: 1
ST_WAY: 256
ST_TAG_BIT: 16
ST_TAG_MASK: ffff

Initialize PATTERN TABLE
PT_SET: 512
PT_WAY: 4
SIG_DELTA_BIT: 7
C_SIG_BIT: 4
C_DELTA_BIT: 4

Initialize PREFETCH FILTER
FILTER_SET: 1024

*** ChampSim Multicore Out-of-Order Simulator ***

Warmup Instructions: 200000000
Simulation Instructions: 1000000000
Number of CPUs: 1
Off-chip DRAM Size: 4 GiB Channels: 1 Width: 64-bit Data Rate: 3200 MT/s

VirtualMemory physical capacity: 8588881920 num_ppages: 2096895
VirtualMemory page size: 4096 log2_page_size: 12

CPU 0 runs /home/faculty/p/pgratz/dpc3_traces/602.gcc_s-734B.champsimtrace.xz
CPU 0 Bimodal branch predictor
Basic BTB sets: 1024 ways: 8 indirect buffer size: 4096 RAS size: 64
WARNING: The extended signature CACHE::prefetch_line(ip, base_addr, pf_addr, fill_this_level, prefetch_metadata) is deprecated.
WARNING: Use CACHE::prefetch_line(pf_addr, fill_this_level, prefetch_metadata) instead.
Heartbeat CPU 0 instructions: 10000002 cycles: 2500071 heartbeat IPC: 3.99989 cumulative IPC: 3.99989 (Simulation time: 0 hr 0 min 29 sec) 
Heartbeat CPU 0 instructions: 20000001 cycles: 5000458 heartbeat IPC: 3.99938 cumulative IPC: 3.99963 (Simulation time: 0 hr 0 min 58 sec) 
Heartbeat CPU 0 instructions: 30000001 cycles: 7500458 heartbeat IPC: 4 cumulative IPC: 3.99976 (Simulation time: 0 hr 1 min 27 sec) 
Heartbeat CPU 0 instructions: 40000000 cycles: 10000462 heartbeat IPC: 3.99999 cumulative IPC: 3.99982 (Simulation time: 0 hr 1 min 55 sec) 
Heartbeat CPU 0 instructions: 50000000 cycles: 12500462 heartbeat IPC: 4 cumulative IPC: 3.99985 (Simulation time: 0 hr 2 min 24 sec) 
Heartbeat CPU 0 instructions: 60000000 cycles: 15000462 heartbeat IPC: 4 cumulative IPC: 3.99988 (Simulation time: 0 hr 2 min 53 sec) 
Heartbeat CPU 0 instructions: 70000001 cycles: 17506790 heartbeat IPC: 3.9899 cumulative IPC: 3.99845 (Simulation time: 0 hr 3 min 22 sec) 
Heartbeat CPU 0 instructions: 80000001 cycles: 20006790 heartbeat IPC: 4 cumulative IPC: 3.99864 (Simulation time: 0 hr 3 min 51 sec) 
Heartbeat CPU 0 instructions: 90000001 cycles: 22506790 heartbeat IPC: 4 cumulative IPC: 3.99879 (Simulation time: 0 hr 4 min 20 sec) 
Heartbeat CPU 0 instructions: 100000002 cycles: 25247005 heartbeat IPC: 3.64935 cumulative IPC: 3.96087 (Simulation time: 0 hr 4 min 54 sec) 
Heartbeat CPU 0 instructions: 110000002 cycles: 27747005 heartbeat IPC: 4 cumulative IPC: 3.96439 (Simulation time: 0 hr 5 min 22 sec) 
Heartbeat CPU 0 instructions: 120000002 cycles: 30247005 heartbeat IPC: 4 cumulative IPC: 3.96733 (Simulation time: 0 hr 5 min 51 sec) 
Heartbeat CPU 0 instructions: 130000003 cycles: 32803669 heartbeat IPC: 3.91135 cumulative IPC: 3.96297 (Simulation time: 0 hr 6 min 21 sec) 
Heartbeat CPU 0 instructions: 140000003 cycles: 35303669 heartbeat IPC: 4 cumulative IPC: 3.96559 (Simulation time: 0 hr 6 min 50 sec) 
Heartbeat CPU 0 instructions: 150000003 cycles: 37803689 heartbeat IPC: 3.99997 cumulative IPC: 3.96787 (Simulation time: 0 hr 7 min 19 sec) 
Heartbeat CPU 0 instructions: 160000000 cycles: 40306706 heartbeat IPC: 3.99518 cumulative IPC: 3.96956 (Simulation time: 0 hr 7 min 48 sec) 
Heartbeat CPU 0 instructions: 170000000 cycles: 42806706 heartbeat IPC: 4 cumulative IPC: 3.97134 (Simulation time: 0 hr 8 min 16 sec) 
Heartbeat CPU 0 instructions: 180000000 cycles: 45306706 heartbeat IPC: 4 cumulative IPC: 3.97292 (Simulation time: 0 hr 8 min 45 sec) 
Heartbeat CPU 0 instructions: 190000000 cycles: 47806706 heartbeat IPC: 4 cumulative IPC: 3.97434 (Simulation time: 0 hr 9 min 15 sec) 
Heartbeat CPU 0 instructions: 200000003 cycles: 50307208 heartbeat IPC: 3.9992 cumulative IPC: 3.97557 (Simulation time: 0 hr 9 min 45 sec) 

Warmup complete CPU 0 instructions: 200000003 cycles: 50307208 (Simulation time: 0 hr 9 min 45 sec) 

Heartbeat CPU 0 instructions: 210000000 cycles: 60675326 heartbeat IPC: 0.964495 cumulative IPC: 0.964495 (Simulation time: 0 hr 10 min 20 sec) 
Heartbeat CPU 0 instructions: 220000001 cycles: 71361985 heartbeat IPC: 0.935746 cumulative IPC: 0.949903 (Simulation time: 0 hr 10 min 55 sec) 
Heartbeat CPU 0 instructions: 230000002 cycles: 81729305 heartbeat IPC: 0.96457 cumulative IPC: 0.954742 (Simulation time: 0 hr 11 min 30 sec) 
Heartbeat CPU 0 instructions: 240000001 cycles: 92186539 heartbeat IPC: 0.956276 cumulative IPC: 0.955125 (Simulation time: 0 hr 12 min 5 sec) 
Heartbeat CPU 0 instructions: 250000000 cycles: 103217493 heartbeat IPC: 0.90654 cumulative IPC: 0.944996 (Simulation time: 0 hr 12 min 40 sec) 
Heartbeat CPU 0 instructions: 260000000 cycles: 113593655 heartbeat IPC: 0.963748 cumulative IPC: 0.94807 (Simulation time: 0 hr 13 min 15 sec) 
Heartbeat CPU 0 instructions: 270000000 cycles: 124116401 heartbeat IPC: 0.950322 cumulative IPC: 0.948391 (Simulation time: 0 hr 13 min 51 sec) 
Heartbeat CPU 0 instructions: 280000001 cycles: 134483889 heartbeat IPC: 0.964554 cumulative IPC: 0.950382 (Simulation time: 0 hr 14 min 25 sec) 
Heartbeat CPU 0 instructions: 290000000 cycles: 144900929 heartbeat IPC: 0.959966 cumulative IPC: 0.951437 (Simulation time: 0 hr 15 min 0 sec) 
Heartbeat CPU 0 instructions: 300000002 cycles: 155500140 heartbeat IPC: 0.943467 cumulative IPC: 0.950634 (Simulation time: 0 hr 15 min 35 sec) 
Heartbeat CPU 0 instructions: 310000003 cycles: 165875103 heartbeat IPC: 0.963859 cumulative IPC: 0.951821 (Simulation time: 0 hr 16 min 10 sec) 
Heartbeat CPU 0 instructions: 320000000 cycles: 176386639 heartbeat IPC: 0.951335 cumulative IPC: 0.951781 (Simulation time: 0 hr 16 min 45 sec) 
Heartbeat CPU 0 instructions: 330000003 cycles: 187093938 heartbeat IPC: 0.933943 cumulative IPC: 0.950385 (Simulation time: 0 hr 17 min 20 sec) 
Heartbeat CPU 0 instructions: 340000004 cycles: 197439144 heartbeat IPC: 0.966631 cumulative IPC: 0.951527 (Simulation time: 0 hr 17 min 55 sec) 
Heartbeat CPU 0 instructions: 350000002 cycles: 207941270 heartbeat IPC: 0.952188 cumulative IPC: 0.951571 (Simulation time: 0 hr 18 min 30 sec) 
Heartbeat CPU 0 instructions: 360000001 cycles: 218546300 heartbeat IPC: 0.942949 cumulative IPC: 0.951027 (Simulation time: 0 hr 19 min 5 sec) 
Heartbeat CPU 0 instructions: 370000001 cycles: 228902924 heartbeat IPC: 0.965566 cumulative IPC: 0.951871 (Simulation time: 0 hr 19 min 39 sec) 
Heartbeat CPU 0 instructions: 380000000 cycles: 239431148 heartbeat IPC: 0.949828 cumulative IPC: 0.951757 (Simulation time: 0 hr 20 min 14 sec) 
Heartbeat CPU 0 instructions: 390000000 cycles: 249970747 heartbeat IPC: 0.948803 cumulative IPC: 0.951601 (Simulation time: 0 hr 20 min 50 sec) 
Heartbeat CPU 0 instructions: 400000003 cycles: 260308659 heartbeat IPC: 0.967314 cumulative IPC: 0.952374 (Simulation time: 0 hr 21 min 25 sec) 
Heartbeat CPU 0 instructions: 410000001 cycles: 270792515 heartbeat IPC: 0.953847 cumulative IPC: 0.952444 (Simulation time: 0 hr 22 min 0 sec) 
Heartbeat CPU 0 instructions: 420000001 cycles: 282640345 heartbeat IPC: 0.844036 cumulative IPC: 0.946916 (Simulation time: 0 hr 22 min 37 sec) 
Heartbeat CPU 0 instructions: 430000002 cycles: 293007452 heartbeat IPC: 0.964589 cumulative IPC: 0.947671 (Simulation time: 0 hr 23 min 12 sec) 
Heartbeat CPU 0 instructions: 440000001 cycles: 303537419 heartbeat IPC: 0.94967 cumulative IPC: 0.947754 (Simulation time: 0 hr 23 min 47 sec) 
Heartbeat CPU 0 instructions: 450000000 cycles: 314183757 heartbeat IPC: 0.93929 cumulative IPC: 0.947413 (Simulation time: 0 hr 24 min 22 sec) 
Heartbeat CPU 0 instructions: 460000000 cycles: 324541278 heartbeat IPC: 0.965482 cumulative IPC: 0.948095 (Simulation time: 0 hr 24 min 57 sec) 
Heartbeat CPU 0 instructions: 470000001 cycles: 335218012 heartbeat IPC: 0.936616 cumulative IPC: 0.947665 (Simulation time: 0 hr 25 min 32 sec) 
Heartbeat CPU 0 instructions: 480000001 cycles: 346582066 heartbeat IPC: 0.879968 cumulative IPC: 0.945068 (Simulation time: 0 hr 26 min 9 sec) 
Heartbeat CPU 0 instructions: 490000000 cycles: 356987270 heartbeat IPC: 0.961057 cumulative IPC: 0.945611 (Simulation time: 0 hr 26 min 44 sec) 
Heartbeat CPU 0 instructions: 500000002 cycles: 367664113 heartbeat IPC: 0.936607 cumulative IPC: 0.945308 (Simulation time: 0 hr 27 min 19 sec) 
Heartbeat CPU 0 instructions: 510000001 cycles: 377996599 heartbeat IPC: 0.967821 cumulative IPC: 0.946018 (Simulation time: 0 hr 27 min 54 sec) 
Heartbeat CPU 0 instructions: 520000002 cycles: 388614552 heartbeat IPC: 0.941801 cumulative IPC: 0.945885 (Simulation time: 0 hr 28 min 29 sec) 
Heartbeat CPU 0 instructions: 530000001 cycles: 399028791 heartbeat IPC: 0.960224 cumulative IPC: 0.946314 (Simulation time: 0 hr 29 min 5 sec) 
Heartbeat CPU 0 instructions: 540000004 cycles: 409373537 heartbeat IPC: 0.966675 cumulative IPC: 0.9469 (Simulation time: 0 hr 29 min 39 sec) 
Heartbeat CPU 0 instructions: 550000000 cycles: 419824352 heartbeat IPC: 0.956863 cumulative IPC: 0.947182 (Simulation time: 0 hr 30 min 14 sec) 
Heartbeat CPU 0 instructions: 560000000 cycles: 431846431 heartbeat IPC: 0.831803 cumulative IPC: 0.943546 (Simulation time: 0 hr 30 min 51 sec) 
Heartbeat CPU 0 instructions: 570000004 cycles: 442549187 heartbeat IPC: 0.934339 cumulative IPC: 0.943295 (Simulation time: 0 hr 31 min 27 sec) 
Heartbeat CPU 0 instructions: 580000000 cycles: 453454250 heartbeat IPC: 0.917005 cumulative IPC: 0.942584 (Simulation time: 0 hr 32 min 3 sec) 
Heartbeat CPU 0 instructions: 590000000 cycles: 463809331 heartbeat IPC: 0.96571 cumulative IPC: 0.943163 (Simulation time: 0 hr 32 min 38 sec) 
Heartbeat CPU 0 instructions: 600000001 cycles: 474211991 heartbeat IPC: 0.961293 cumulative IPC: 0.943608 (Simulation time: 0 hr 33 min 13 sec) 
Heartbeat CPU 0 instructions: 610000003 cycles: 484838080 heartbeat IPC: 0.94108 cumulative IPC: 0.943546 (Simulation time: 0 hr 33 min 48 sec) 
Heartbeat CPU 0 instructions: 620000000 cycles: 495190077 heartbeat IPC: 0.965997 cumulative IPC: 0.944069 (Simulation time: 0 hr 34 min 23 sec) 
Heartbeat CPU 0 instructions: 630000004 cycles: 505579905 heartbeat IPC: 0.96248 cumulative IPC: 0.944489 (Simulation time: 0 hr 34 min 58 sec) 
Heartbeat CPU 0 instructions: 640000003 cycles: 516158252 heartbeat IPC: 0.945327 cumulative IPC: 0.944508 (Simulation time: 0 hr 35 min 33 sec) 
Heartbeat CPU 0 instructions: 650000002 cycles: 526496655 heartbeat IPC: 0.967267 cumulative IPC: 0.945002 (Simulation time: 0 hr 36 min 8 sec) 
Heartbeat CPU 0 instructions: 660000003 cycles: 536953399 heartbeat IPC: 0.956321 cumulative IPC: 0.945245 (Simulation time: 0 hr 36 min 43 sec) 
Heartbeat CPU 0 instructions: 670000003 cycles: 547555756 heartbeat IPC: 0.943187 cumulative IPC: 0.945201 (Simulation time: 0 hr 37 min 18 sec) 
Heartbeat CPU 0 instructions: 680000000 cycles: 557918787 heartbeat IPC: 0.964968 cumulative IPC: 0.945605 (Simulation time: 0 hr 37 min 53 sec) 
Heartbeat CPU 0 instructions: 690000001 cycles: 568393420 heartbeat IPC: 0.954687 cumulative IPC: 0.945789 (Simulation time: 0 hr 38 min 28 sec) 
Heartbeat CPU 0 instructions: 700000001 cycles: 579003744 heartbeat IPC: 0.942478 cumulative IPC: 0.945722 (Simulation time: 0 hr 39 min 3 sec) 
Heartbeat CPU 0 instructions: 710000001 cycles: 589364167 heartbeat IPC: 0.965212 cumulative IPC: 0.946097 (Simulation time: 0 hr 39 min 37 sec) 
Heartbeat CPU 0 instructions: 720000000 cycles: 599906494 heartbeat IPC: 0.948557 cumulative IPC: 0.946144 (Simulation time: 0 hr 40 min 13 sec) 
Heartbeat CPU 0 instructions: 730000004 cycles: 610703408 heartbeat IPC: 0.926191 cumulative IPC: 0.945759 (Simulation time: 0 hr 40 min 48 sec) 
Heartbeat CPU 0 instructions: 740000004 cycles: 621431968 heartbeat IPC: 0.932092 cumulative IPC: 0.945503 (Simulation time: 0 hr 41 min 23 sec) 
Heartbeat CPU 0 instructions: 750000001 cycles: 632425977 heartbeat IPC: 0.909586 cumulative IPC: 0.944824 (Simulation time: 0 hr 41 min 58 sec) 
Heartbeat CPU 0 instructions: 760000002 cycles: 647662883 heartbeat IPC: 0.656301 cumulative IPC: 0.937465 (Simulation time: 0 hr 42 min 36 sec) 
Heartbeat CPU 0 instructions: 770000000 cycles: 660018132 heartbeat IPC: 0.809372 cumulative IPC: 0.934869 (Simulation time: 0 hr 43 min 12 sec) 
Heartbeat CPU 0 instructions: 780000000 cycles: 670392527 heartbeat IPC: 0.963912 cumulative IPC: 0.935355 (Simulation time: 0 hr 43 min 46 sec) 
Heartbeat CPU 0 instructions: 790000004 cycles: 681021717 heartbeat IPC: 0.940806 cumulative IPC: 0.935447 (Simulation time: 0 hr 44 min 21 sec) 
Heartbeat CPU 0 instructions: 800000001 cycles: 691480151 heartbeat IPC: 0.956166 cumulative IPC: 0.935785 (Simulation time: 0 hr 44 min 56 sec) 
Heartbeat CPU 0 instructions: 810000000 cycles: 701849251 heartbeat IPC: 0.964404 cumulative IPC: 0.93624 (Simulation time: 0 hr 45 min 31 sec) 
Heartbeat CPU 0 instructions: 820000000 cycles: 712621271 heartbeat IPC: 0.928331 cumulative IPC: 0.936112 (Simulation time: 0 hr 46 min 6 sec) 
Heartbeat CPU 0 instructions: 830000002 cycles: 723307505 heartbeat IPC: 0.935784 cumulative IPC: 0.936107 (Simulation time: 0 hr 46 min 41 sec) 
Heartbeat CPU 0 instructions: 840000002 cycles: 734057152 heartbeat IPC: 0.930263 cumulative IPC: 0.936015 (Simulation time: 0 hr 47 min 16 sec) 
Heartbeat CPU 0 instructions: 850000004 cycles: 744731452 heartbeat IPC: 0.93683 cumulative IPC: 0.936027 (Simulation time: 0 hr 47 min 51 sec) 
Heartbeat CPU 0 instructions: 860000004 cycles: 755070466 heartbeat IPC: 0.96721 cumulative IPC: 0.936485 (Simulation time: 0 hr 48 min 26 sec) 
Heartbeat CPU 0 instructions: 870000000 cycles: 765517860 heartbeat IPC: 0.957176 cumulative IPC: 0.936787 (Simulation time: 0 hr 49 min 1 sec) 
Heartbeat CPU 0 instructions: 880000003 cycles: 776039337 heartbeat IPC: 0.950437 cumulative IPC: 0.936985 (Simulation time: 0 hr 49 min 36 sec) 
Heartbeat CPU 0 instructions: 890000003 cycles: 786410392 heartbeat IPC: 0.964222 cumulative IPC: 0.937369 (Simulation time: 0 hr 50 min 10 sec) 
Heartbeat CPU 0 instructions: 900000000 cycles: 797028212 heartbeat IPC: 0.941813 cumulative IPC: 0.937432 (Simulation time: 0 hr 50 min 45 sec) 
Heartbeat CPU 0 instructions: 910000000 cycles: 807507879 heartbeat IPC: 0.954229 cumulative IPC: 0.937664 (Simulation time: 0 hr 51 min 20 sec) 
Heartbeat CPU 0 instructions: 920000003 cycles: 817871262 heartbeat IPC: 0.964936 cumulative IPC: 0.938032 (Simulation time: 0 hr 51 min 52 sec) 
Heartbeat CPU 0 instructions: 930000000 cycles: 828451803 heartbeat IPC: 0.945131 cumulative IPC: 0.938129 (Simulation time: 0 hr 52 min 24 sec) 
Heartbeat CPU 0 instructions: 940000003 cycles: 838898973 heartbeat IPC: 0.957197 cumulative IPC: 0.938382 (Simulation time: 0 hr 52 min 57 sec) 
Heartbeat CPU 0 instructions: 950000001 cycles: 849272796 heartbeat IPC: 0.963965 cumulative IPC: 0.938714 (Simulation time: 0 hr 53 min 30 sec) 
Heartbeat CPU 0 instructions: 960000003 cycles: 859908265 heartbeat IPC: 0.94025 cumulative IPC: 0.938734 (Simulation time: 0 hr 54 min 2 sec) 
Heartbeat CPU 0 instructions: 970000002 cycles: 870409162 heartbeat IPC: 0.952299 cumulative IPC: 0.938908 (Simulation time: 0 hr 54 min 35 sec) 
Heartbeat CPU 0 instructions: 980000000 cycles: 880778241 heartbeat IPC: 0.964406 cumulative IPC: 0.939226 (Simulation time: 0 hr 55 min 7 sec) 
Heartbeat CPU 0 instructions: 990000000 cycles: 891372366 heartbeat IPC: 0.943919 cumulative IPC: 0.939285 (Simulation time: 0 hr 55 min 40 sec) 
Heartbeat CPU 0 instructions: 1000000001 cycles: 901754942 heartbeat IPC: 0.963152 cumulative IPC: 0.939576 (Simulation time: 0 hr 56 min 13 sec) 
Heartbeat CPU 0 instructions: 1010000002 cycles: 912118538 heartbeat IPC: 0.964916 cumulative IPC: 0.939881 (Simulation time: 0 hr 56 min 45 sec) 
Heartbeat CPU 0 instructions: 1020000000 cycles: 922709439 heartbeat IPC: 0.944207 cumulative IPC: 0.939933 (Simulation time: 0 hr 57 min 18 sec) 
Heartbeat CPU 0 instructions: 1030000004 cycles: 933082177 heartbeat IPC: 0.964066 cumulative IPC: 0.940217 (Simulation time: 0 hr 57 min 50 sec) 
Heartbeat CPU 0 instructions: 1040000004 cycles: 943477974 heartbeat IPC: 0.961927 cumulative IPC: 0.94047 (Simulation time: 0 hr 58 min 23 sec) 
Heartbeat CPU 0 instructions: 1050000000 cycles: 954141818 heartbeat IPC: 0.937748 cumulative IPC: 0.940438 (Simulation time: 0 hr 58 min 55 sec) 
Heartbeat CPU 0 instructions: 1060000001 cycles: 964513887 heartbeat IPC: 0.964128 cumulative IPC: 0.940706 (Simulation time: 0 hr 59 min 28 sec) 
Heartbeat CPU 0 instructions: 1070000004 cycles: 974905059 heartbeat IPC: 0.962356 cumulative IPC: 0.94095 (Simulation time: 1 hr 0 min 0 sec) 
Heartbeat CPU 0 instructions: 1080000001 cycles: 985583312 heartbeat IPC: 0.936482 cumulative IPC: 0.940899 (Simulation time: 1 hr 0 min 33 sec) 
Heartbeat CPU 0 instructions: 1090000000 cycles: 995949330 heartbeat IPC: 0.964691 cumulative IPC: 0.941159 (Simulation time: 1 hr 1 min 5 sec) 
Heartbeat CPU 0 instructions: 1100000003 cycles: 1006333750 heartbeat IPC: 0.962981 cumulative IPC: 0.941396 (Simulation time: 1 hr 1 min 37 sec) 
Heartbeat CPU 0 instructions: 1110000000 cycles: 1016971891 heartbeat IPC: 0.940014 cumulative IPC: 0.941381 (Simulation time: 1 hr 2 min 10 sec) 
Heartbeat CPU 0 instructions: 1120000004 cycles: 1027321814 heartbeat IPC: 0.966191 cumulative IPC: 0.941644 (Simulation time: 1 hr 2 min 42 sec) 
Heartbeat CPU 0 instructions: 1130000000 cycles: 1037743277 heartbeat IPC: 0.959558 cumulative IPC: 0.941833 (Simulation time: 1 hr 3 min 12 sec) 
Heartbeat CPU 0 instructions: 1140000003 cycles: 1048327184 heartbeat IPC: 0.944831 cumulative IPC: 0.941865 (Simulation time: 1 hr 3 min 43 sec) 
Heartbeat CPU 0 instructions: 1150000004 cycles: 1058672859 heartbeat IPC: 0.966588 cumulative IPC: 0.942119 (Simulation time: 1 hr 4 min 13 sec) 
Heartbeat CPU 0 instructions: 1160000001 cycles: 1069086871 heartbeat IPC: 0.960244 cumulative IPC: 0.942304 (Simulation time: 1 hr 4 min 44 sec) 
Heartbeat CPU 0 instructions: 1170000001 cycles: 1079665165 heartbeat IPC: 0.945332 cumulative IPC: 0.942335 (Simulation time: 1 hr 5 min 15 sec) 
Heartbeat CPU 0 instructions: 1180000001 cycles: 1090005613 heartbeat IPC: 0.967076 cumulative IPC: 0.942581 (Simulation time: 1 hr 5 min 45 sec) 
Heartbeat CPU 0 instructions: 1190000001 cycles: 1100517256 heartbeat IPC: 0.951326 cumulative IPC: 0.942669 (Simulation time: 1 hr 6 min 16 sec) 
Heartbeat CPU 0 instructions: 1200000001 cycles: 1111084435 heartbeat IPC: 0.946326 cumulative IPC: 0.942705 (Simulation time: 1 hr 6 min 47 sec) 
Finished CPU 0 instructions: 1000000003 cycles: 1060777228 cumulative IPC: 0.942705 (Simulation time: 1 hr 6 min 47 sec) 

ChampSim completed all CPUs

Region of Interest Statistics

CPU 0 cumulative IPC: 0.942705 instructions: 1000000003 cycles: 1060777228
cpu0_DTLB TOTAL     ACCESS:  186267723  HIT:  185823722  MISS:     444001
cpu0_DTLB LOAD      ACCESS:  148422369  HIT:  147979478  MISS:     442891
cpu0_DTLB RFO       ACCESS:   37845354  HIT:   37844244  MISS:       1110
cpu0_DTLB PREFETCH  ACCESS:          0  HIT:          0  MISS:          0
cpu0_DTLB WRITEBACK ACCESS:          0  HIT:          0  MISS:          0
cpu0_DTLB TRANSLATION ACCESS:          0  HIT:          0  MISS:          0
cpu0_DTLB PREFETCH  REQUESTED:          0  ISSUED:          0  USEFUL:          0  USELESS:          0
cpu0_DTLB AVERAGE MISS LATENCY: 18.3295 cycles
cpu0_ITLB TOTAL     ACCESS:  112346937  HIT:  112346937  MISS:          0
cpu0_ITLB LOAD      ACCESS:  112346937  HIT:  112346937  MISS:          0
cpu0_ITLB RFO       ACCESS:          0  HIT:          0  MISS:          0
cpu0_ITLB PREFETCH  ACCESS:          0  HIT:          0  MISS:          0
cpu0_ITLB WRITEBACK ACCESS:          0  HIT:          0  MISS:          0
cpu0_ITLB TRANSLATION ACCESS:          0  HIT:          0  MISS:          0
cpu0_ITLB PREFETCH  REQUESTED:          0  ISSUED:          0  USEFUL:          0  USELESS:          0
cpu0_ITLB AVERAGE MISS LATENCY: -nan cycles
cpu0_L1I TOTAL     ACCESS:     231447  HIT:     231446  MISS:          1
cpu0_L1I LOAD      ACCESS:     231447  HIT:     231446  MISS:          1
cpu0_L1I RFO       ACCESS:          0  HIT:          0  MISS:          0
cpu0_L1I PREFETCH  ACCESS:          0  HIT:          0  MISS:          0
cpu0_L1I WRITEBACK ACCESS:          0  HIT:          0  MISS:          0
cpu0_L1I TRANSLATION ACCESS:          0  HIT:          0  MISS:          0
cpu0_L1I PREFETCH  REQUESTED:          0  ISSUED:          0  USEFUL:          0  USELESS:          0
cpu0_L1I AVERAGE MISS LATENCY: 194 cycles
cpu0_STLB TOTAL     ACCESS:     444001  HIT:     225904  MISS:     218097
cpu0_STLB LOAD      ACCESS:     442891  HIT:     225360  MISS:     217531
cpu0_STLB RFO       ACCESS:       1110  HIT:        544  MISS:        566
cpu0_STLB PREFETCH  ACCESS:          0  HIT:          0  MISS:          0
cpu0_STLB WRITEBACK ACCESS:          0  HIT:          0  MISS:          0
cpu0_STLB TRANSLATION ACCESS:          0  HIT:          0  MISS:          0
cpu0_STLB PREFETCH  REQUESTED:          0  ISSUED:          0  USEFUL:          0  USELESS:          0
cpu0_STLB AVERAGE MISS LATENCY: 18.9888 cycles
cpu0_L1D TOTAL     ACCESS:  229066659  HIT:  212527021  MISS:   16539638
cpu0_L1D LOAD      ACCESS:  128754563  HIT:  112265383  MISS:   16489180
cpu0_L1D RFO       ACCESS:  100097946  HIT:  100088007  MISS:       9939
cpu0_L1D PREFETCH  ACCESS:          0  HIT:          0  MISS:          0
cpu0_L1D WRITEBACK ACCESS:          0  HIT:          0  MISS:          0
cpu0_L1D TRANSLATION ACCESS:     214150  HIT:     173631  MISS:      40519
cpu0_L1D PREFETCH  REQUESTED:          0  ISSUED:          0  USEFUL:          0  USELESS:          0
cpu0_L1D AVERAGE MISS LATENCY: 18.5298 cycles
cpu0_L2C TOTAL     ACCESS:   72773859  HIT:   64489175  MISS:    8284684
cpu0_L2C LOAD      ACCESS:   16489181  HIT:   13534420  MISS:    2954761
cpu0_L2C RFO       ACCESS:       9939  HIT:       1764  MISS:       8175
cpu0_L2C PREFETCH  ACCESS:   56069751  HIT:   50755867  MISS:    5313884
cpu0_L2C WRITEBACK ACCESS:     164469  HIT:     164427  MISS:         42
cpu0_L2C TRANSLATION ACCESS:      40519  HIT:      32697  MISS:       7822
cpu0_L2C PREFETCH  REQUESTED:  132647059  ISSUED:  126650155  USEFUL:    5338618  USELESS:      22241
cpu0_L2C AVERAGE MISS LATENCY: 30.2167 cycles
LLC TOTAL     ACCESS:   78062653  HIT:   69267046  MISS:    8795607
LLC LOAD      ACCESS:    2907784  HIT:    2517611  MISS:     390173
LLC RFO       ACCESS:       8175  HIT:        842  MISS:       7333
LLC PREFETCH  ACCESS:   75059362  HIT:   66685340  MISS:    8374022
LLC WRITEBACK ACCESS:      79510  HIT:      61373  MISS:      18137
LLC TRANSLATION ACCESS:       7822  HIT:       1880  MISS:       5942
LLC PREFETCH  REQUESTED:          0  ISSUED:          0  USEFUL:          0  USELESS:          0
LLC AVERAGE MISS LATENCY: 106.216 cycles

DRAM Statistics
 CHANNEL 0
 RQ ROW_BUFFER_HIT:    6461373  ROW_BUFFER_MISS:    2316096
 DBUS AVG_CONGESTED_CYCLE:    3.97319
 WQ ROW_BUFFER_HIT:      28036  ROW_BUFFER_MISS:      50595  FULL:          0


CPU 0 Branch Prediction Accuracy: 94.6562% MPKI: 12.6924 Average ROB Occupancy at Mispredict: 58.5698
Branch type MPKI
BRANCH_DIRECT_JUMP: 4e-06
BRANCH_INDIRECT: 0
BRANCH_CONDITIONAL: 12.6924
BRANCH_DIRECT_CALL: 1e-06
BRANCH_INDIRECT_CALL: 2e-06
BRANCH_RETURN: 1e-06

