Initialize SIGNATURE TABLE
ST_SET: 1
ST_WAY: 256
ST_TAG_BIT: 16
ST_TAG_MASK: ffff

Initialize PATTERN TABLE
PT_SET: 512
PT_WAY: 4
SIG_DELTA_BIT: 7
C_SIG_BIT: 4
C_DELTA_BIT: 4

Initialize PREFETCH FILTER
FILTER_SET: 1024

*** ChampSim Multicore Out-of-Order Simulator ***

Warmup Instructions: 200000000
Simulation Instructions: 1000000000
Number of CPUs: 1
Off-chip DRAM Size: 4 GiB Channels: 1 Width: 64-bit Data Rate: 3200 MT/s

VirtualMemory physical capacity: 8588881920 num_ppages: 2096895
VirtualMemory page size: 4096 log2_page_size: 12

CPU 0 runs /home/faculty/p/pgratz/dpc3_traces/654.roms_s-842B.champsimtrace.xz
CPU 0 Bimodal branch predictor
Basic BTB sets: 1024 ways: 8 indirect buffer size: 4096 RAS size: 64
WARNING: The extended signature CACHE::prefetch_line(ip, base_addr, pf_addr, fill_this_level, prefetch_metadata) is deprecated.
WARNING: Use CACHE::prefetch_line(pf_addr, fill_this_level, prefetch_metadata) instead.
Heartbeat CPU 0 instructions: 10000000 cycles: 2501439 heartbeat IPC: 3.9977 cumulative IPC: 3.9977 (Simulation time: 0 hr 0 min 26 sec) 
Heartbeat CPU 0 instructions: 20000001 cycles: 5003215 heartbeat IPC: 3.99716 cumulative IPC: 3.99743 (Simulation time: 0 hr 0 min 52 sec) 
Heartbeat CPU 0 instructions: 30000003 cycles: 7504019 heartbeat IPC: 3.99871 cumulative IPC: 3.99786 (Simulation time: 0 hr 1 min 18 sec) 
Heartbeat CPU 0 instructions: 40000003 cycles: 10005951 heartbeat IPC: 3.99691 cumulative IPC: 3.99762 (Simulation time: 0 hr 1 min 44 sec) 
Heartbeat CPU 0 instructions: 50000003 cycles: 12510302 heartbeat IPC: 3.99305 cumulative IPC: 3.99671 (Simulation time: 0 hr 2 min 12 sec) 
Heartbeat CPU 0 instructions: 60000002 cycles: 15011752 heartbeat IPC: 3.99768 cumulative IPC: 3.99687 (Simulation time: 0 hr 2 min 38 sec) 
Heartbeat CPU 0 instructions: 70000000 cycles: 17513043 heartbeat IPC: 3.99793 cumulative IPC: 3.99702 (Simulation time: 0 hr 3 min 4 sec) 
Heartbeat CPU 0 instructions: 80000002 cycles: 20014493 heartbeat IPC: 3.99768 cumulative IPC: 3.9971 (Simulation time: 0 hr 3 min 30 sec) 
Heartbeat CPU 0 instructions: 90000003 cycles: 22516265 heartbeat IPC: 3.99717 cumulative IPC: 3.99711 (Simulation time: 0 hr 3 min 56 sec) 
Heartbeat CPU 0 instructions: 100000000 cycles: 25016907 heartbeat IPC: 3.99897 cumulative IPC: 3.9973 (Simulation time: 0 hr 4 min 22 sec) 
Heartbeat CPU 0 instructions: 110000000 cycles: 27519162 heartbeat IPC: 3.9964 cumulative IPC: 3.99721 (Simulation time: 0 hr 4 min 49 sec) 
Heartbeat CPU 0 instructions: 120000001 cycles: 30020129 heartbeat IPC: 3.99845 cumulative IPC: 3.99732 (Simulation time: 0 hr 5 min 15 sec) 
Heartbeat CPU 0 instructions: 130000000 cycles: 32520450 heartbeat IPC: 3.99949 cumulative IPC: 3.99748 (Simulation time: 0 hr 5 min 40 sec) 
Heartbeat CPU 0 instructions: 140000002 cycles: 35022384 heartbeat IPC: 3.99691 cumulative IPC: 3.99744 (Simulation time: 0 hr 6 min 6 sec) 
Heartbeat CPU 0 instructions: 150000000 cycles: 37524316 heartbeat IPC: 3.99691 cumulative IPC: 3.99741 (Simulation time: 0 hr 6 min 33 sec) 
Heartbeat CPU 0 instructions: 160000002 cycles: 40025122 heartbeat IPC: 3.99871 cumulative IPC: 3.99749 (Simulation time: 0 hr 6 min 59 sec) 
Heartbeat CPU 0 instructions: 170000003 cycles: 42526573 heartbeat IPC: 3.99768 cumulative IPC: 3.9975 (Simulation time: 0 hr 7 min 25 sec) 
Heartbeat CPU 0 instructions: 180000003 cycles: 45029151 heartbeat IPC: 3.99588 cumulative IPC: 3.99741 (Simulation time: 0 hr 7 min 52 sec) 
Heartbeat CPU 0 instructions: 190000003 cycles: 47531086 heartbeat IPC: 3.99691 cumulative IPC: 3.99738 (Simulation time: 0 hr 8 min 18 sec) 
Heartbeat CPU 0 instructions: 200000000 cycles: 50032537 heartbeat IPC: 3.99768 cumulative IPC: 3.9974 (Simulation time: 0 hr 8 min 44 sec) 

Warmup complete CPU 0 instructions: 200000004 cycles: 50032538 (Simulation time: 0 hr 8 min 44 sec) 

Heartbeat CPU 0 instructions: 210000000 cycles: 58322182 heartbeat IPC: 1.20632 cumulative IPC: 1.20632 (Simulation time: 0 hr 9 min 11 sec) 
Heartbeat CPU 0 instructions: 220000000 cycles: 66390714 heartbeat IPC: 1.23938 cumulative IPC: 1.22263 (Simulation time: 0 hr 9 min 40 sec) 
Heartbeat CPU 0 instructions: 230000001 cycles: 74705035 heartbeat IPC: 1.20274 cumulative IPC: 1.21593 (Simulation time: 0 hr 10 min 6 sec) 
Heartbeat CPU 0 instructions: 240000000 cycles: 82796612 heartbeat IPC: 1.23585 cumulative IPC: 1.22085 (Simulation time: 0 hr 10 min 35 sec) 
Heartbeat CPU 0 instructions: 250000001 cycles: 90915710 heartbeat IPC: 1.23166 cumulative IPC: 1.223 (Simulation time: 0 hr 11 min 3 sec) 
Heartbeat CPU 0 instructions: 260000000 cycles: 99158523 heartbeat IPC: 1.21318 cumulative IPC: 1.22135 (Simulation time: 0 hr 11 min 30 sec) 
Heartbeat CPU 0 instructions: 270000003 cycles: 107274508 heartbeat IPC: 1.23214 cumulative IPC: 1.22288 (Simulation time: 0 hr 11 min 58 sec) 
Heartbeat CPU 0 instructions: 280000000 cycles: 115458685 heartbeat IPC: 1.22187 cumulative IPC: 1.22275 (Simulation time: 0 hr 12 min 26 sec) 
Heartbeat CPU 0 instructions: 290000000 cycles: 123776281 heartbeat IPC: 1.20227 cumulative IPC: 1.22044 (Simulation time: 0 hr 12 min 52 sec) 
Heartbeat CPU 0 instructions: 300000002 cycles: 132017752 heartbeat IPC: 1.21338 cumulative IPC: 1.21973 (Simulation time: 0 hr 13 min 20 sec) 
Heartbeat CPU 0 instructions: 310000000 cycles: 140359645 heartbeat IPC: 1.19877 cumulative IPC: 1.2178 (Simulation time: 0 hr 13 min 46 sec) 
Heartbeat CPU 0 instructions: 320000004 cycles: 148701634 heartbeat IPC: 1.19876 cumulative IPC: 1.21619 (Simulation time: 0 hr 14 min 13 sec) 
Heartbeat CPU 0 instructions: 330000000 cycles: 157043842 heartbeat IPC: 1.19872 cumulative IPC: 1.21482 (Simulation time: 0 hr 14 min 40 sec) 
Heartbeat CPU 0 instructions: 340000001 cycles: 165282475 heartbeat IPC: 1.21379 cumulative IPC: 1.21475 (Simulation time: 0 hr 15 min 7 sec) 
Heartbeat CPU 0 instructions: 350000000 cycles: 173595696 heartbeat IPC: 1.2029 cumulative IPC: 1.21395 (Simulation time: 0 hr 15 min 34 sec) 
Heartbeat CPU 0 instructions: 360000001 cycles: 181886978 heartbeat IPC: 1.20609 cumulative IPC: 1.21346 (Simulation time: 0 hr 16 min 1 sec) 
Heartbeat CPU 0 instructions: 370000000 cycles: 190149200 heartbeat IPC: 1.21033 cumulative IPC: 1.21327 (Simulation time: 0 hr 16 min 28 sec) 
Heartbeat CPU 0 instructions: 380000002 cycles: 197810478 heartbeat IPC: 1.30527 cumulative IPC: 1.21804 (Simulation time: 0 hr 17 min 0 sec) 
Heartbeat CPU 0 instructions: 390000004 cycles: 205893409 heartbeat IPC: 1.23718 cumulative IPC: 1.21904 (Simulation time: 0 hr 17 min 29 sec) 
Heartbeat CPU 0 instructions: 400000003 cycles: 214156381 heartbeat IPC: 1.21022 cumulative IPC: 1.21859 (Simulation time: 0 hr 17 min 56 sec) 
Heartbeat CPU 0 instructions: 410000002 cycles: 222448340 heartbeat IPC: 1.20599 cumulative IPC: 1.21799 (Simulation time: 0 hr 18 min 23 sec) 
Heartbeat CPU 0 instructions: 420000002 cycles: 230764927 heartbeat IPC: 1.20242 cumulative IPC: 1.21727 (Simulation time: 0 hr 18 min 50 sec) 
Heartbeat CPU 0 instructions: 430000004 cycles: 238603173 heartbeat IPC: 1.2758 cumulative IPC: 1.2197 (Simulation time: 0 hr 19 min 21 sec) 
Heartbeat CPU 0 instructions: 440000000 cycles: 246626265 heartbeat IPC: 1.2464 cumulative IPC: 1.22079 (Simulation time: 0 hr 19 min 50 sec) 
Heartbeat CPU 0 instructions: 450000002 cycles: 253898799 heartbeat IPC: 1.37504 cumulative IPC: 1.22629 (Simulation time: 0 hr 20 min 25 sec) 
Heartbeat CPU 0 instructions: 460000001 cycles: 262189342 heartbeat IPC: 1.20619 cumulative IPC: 1.22551 (Simulation time: 0 hr 20 min 52 sec) 
Heartbeat CPU 0 instructions: 470000003 cycles: 270456970 heartbeat IPC: 1.20954 cumulative IPC: 1.22491 (Simulation time: 0 hr 21 min 20 sec) 
Heartbeat CPU 0 instructions: 480000002 cycles: 278673422 heartbeat IPC: 1.21707 cumulative IPC: 1.22463 (Simulation time: 0 hr 21 min 47 sec) 
Heartbeat CPU 0 instructions: 490000000 cycles: 295154390 heartbeat IPC: 0.60676 cumulative IPC: 1.18309 (Simulation time: 0 hr 23 min 8 sec) 
Heartbeat CPU 0 instructions: 500000003 cycles: 301234019 heartbeat IPC: 1.64484 cumulative IPC: 1.19426 (Simulation time: 0 hr 24 min 0 sec) 
Heartbeat CPU 0 instructions: 510000000 cycles: 307314265 heartbeat IPC: 1.64467 cumulative IPC: 1.2049 (Simulation time: 0 hr 24 min 51 sec) 
Heartbeat CPU 0 instructions: 520000000 cycles: 313383477 heartbeat IPC: 1.64766 cumulative IPC: 1.21511 (Simulation time: 0 hr 25 min 43 sec) 
Heartbeat CPU 0 instructions: 530000000 cycles: 319459516 heartbeat IPC: 1.64581 cumulative IPC: 1.22482 (Simulation time: 0 hr 26 min 34 sec) 
Heartbeat CPU 0 instructions: 540000000 cycles: 325529952 heartbeat IPC: 1.64733 cumulative IPC: 1.23413 (Simulation time: 0 hr 27 min 26 sec) 
Heartbeat CPU 0 instructions: 550000002 cycles: 331599048 heartbeat IPC: 1.64769 cumulative IPC: 1.24305 (Simulation time: 0 hr 28 min 17 sec) 
Heartbeat CPU 0 instructions: 560000000 cycles: 338887398 heartbeat IPC: 1.37205 cumulative IPC: 1.2463 (Simulation time: 0 hr 29 min 12 sec) 
Heartbeat CPU 0 instructions: 570000003 cycles: 351594578 heartbeat IPC: 0.786957 cumulative IPC: 1.22694 (Simulation time: 0 hr 30 min 34 sec) 
Heartbeat CPU 0 instructions: 580000001 cycles: 357667250 heartbeat IPC: 1.64672 cumulative IPC: 1.23523 (Simulation time: 0 hr 31 min 26 sec) 
Heartbeat CPU 0 instructions: 590000003 cycles: 363741323 heartbeat IPC: 1.64634 cumulative IPC: 1.24319 (Simulation time: 0 hr 32 min 17 sec) 
Heartbeat CPU 0 instructions: 600000000 cycles: 369811832 heartbeat IPC: 1.64731 cumulative IPC: 1.25086 (Simulation time: 0 hr 33 min 8 sec) 
Heartbeat CPU 0 instructions: 610000003 cycles: 375891305 heartbeat IPC: 1.64488 cumulative IPC: 1.25821 (Simulation time: 0 hr 34 min 0 sec) 
Heartbeat CPU 0 instructions: 620000003 cycles: 381955038 heartbeat IPC: 1.64915 cumulative IPC: 1.26536 (Simulation time: 0 hr 34 min 51 sec) 
Heartbeat CPU 0 instructions: 630000000 cycles: 388031984 heartbeat IPC: 1.64556 cumulative IPC: 1.27219 (Simulation time: 0 hr 35 min 43 sec) 
Heartbeat CPU 0 instructions: 640000000 cycles: 402999545 heartbeat IPC: 0.668112 cumulative IPC: 1.24658 (Simulation time: 0 hr 37 min 12 sec) 
Heartbeat CPU 0 instructions: 650000001 cycles: 409070273 heartbeat IPC: 1.64725 cumulative IPC: 1.25335 (Simulation time: 0 hr 38 min 4 sec) 
Heartbeat CPU 0 instructions: 660000004 cycles: 415149765 heartbeat IPC: 1.64487 cumulative IPC: 1.25987 (Simulation time: 0 hr 38 min 55 sec) 
Heartbeat CPU 0 instructions: 670000001 cycles: 421216255 heartbeat IPC: 1.6484 cumulative IPC: 1.26622 (Simulation time: 0 hr 39 min 47 sec) 
Heartbeat CPU 0 instructions: 680000003 cycles: 427293511 heartbeat IPC: 1.64548 cumulative IPC: 1.27233 (Simulation time: 0 hr 40 min 38 sec) 
Heartbeat CPU 0 instructions: 690000003 cycles: 433363542 heartbeat IPC: 1.64744 cumulative IPC: 1.27827 (Simulation time: 0 hr 41 min 29 sec) 
Heartbeat CPU 0 instructions: 700000001 cycles: 439434913 heartbeat IPC: 1.64707 cumulative IPC: 1.28402 (Simulation time: 0 hr 42 min 21 sec) 
Heartbeat CPU 0 instructions: 710000001 cycles: 452283714 heartbeat IPC: 0.778283 cumulative IPC: 1.26786 (Simulation time: 0 hr 43 min 41 sec) 
Heartbeat CPU 0 instructions: 720000003 cycles: 460023749 heartbeat IPC: 1.29198 cumulative IPC: 1.26832 (Simulation time: 0 hr 44 min 41 sec) 
Heartbeat CPU 0 instructions: 730000003 cycles: 466098703 heartbeat IPC: 1.6461 cumulative IPC: 1.27384 (Simulation time: 0 hr 45 min 32 sec) 
Heartbeat CPU 0 instructions: 740000002 cycles: 472170986 heartbeat IPC: 1.64683 cumulative IPC: 1.2792 (Simulation time: 0 hr 46 min 24 sec) 
Heartbeat CPU 0 instructions: 750000004 cycles: 478242067 heartbeat IPC: 1.64715 cumulative IPC: 1.28442 (Simulation time: 0 hr 47 min 14 sec) 
Heartbeat CPU 0 instructions: 760000001 cycles: 484318976 heartbeat IPC: 1.64557 cumulative IPC: 1.28947 (Simulation time: 0 hr 48 min 3 sec) 
Heartbeat CPU 0 instructions: 770000001 cycles: 490384259 heartbeat IPC: 1.64873 cumulative IPC: 1.29442 (Simulation time: 0 hr 48 min 52 sec) 
Heartbeat CPU 0 instructions: 780000001 cycles: 496464356 heartbeat IPC: 1.64471 cumulative IPC: 1.29919 (Simulation time: 0 hr 49 min 41 sec) 
Heartbeat CPU 0 instructions: 790000003 cycles: 511047185 heartbeat IPC: 0.685738 cumulative IPC: 1.27979 (Simulation time: 0 hr 51 min 7 sec) 
Heartbeat CPU 0 instructions: 800000001 cycles: 517122026 heartbeat IPC: 1.64613 cumulative IPC: 1.28455 (Simulation time: 0 hr 51 min 56 sec) 
Heartbeat CPU 0 instructions: 810000001 cycles: 523198216 heartbeat IPC: 1.64577 cumulative IPC: 1.28919 (Simulation time: 0 hr 52 min 46 sec) 
Heartbeat CPU 0 instructions: 820000000 cycles: 529266092 heartbeat IPC: 1.64802 cumulative IPC: 1.29373 (Simulation time: 0 hr 53 min 36 sec) 
Heartbeat CPU 0 instructions: 830000002 cycles: 535345243 heartbeat IPC: 1.64497 cumulative IPC: 1.29813 (Simulation time: 0 hr 54 min 25 sec) 
Heartbeat CPU 0 instructions: 840000004 cycles: 541414725 heartbeat IPC: 1.64759 cumulative IPC: 1.30245 (Simulation time: 0 hr 55 min 15 sec) 
Heartbeat CPU 0 instructions: 850000004 cycles: 547485669 heartbeat IPC: 1.64719 cumulative IPC: 1.30666 (Simulation time: 0 hr 56 min 5 sec) 
Heartbeat CPU 0 instructions: 860000000 cycles: 561598646 heartbeat IPC: 0.708567 cumulative IPC: 1.29016 (Simulation time: 0 hr 57 min 29 sec) 
Heartbeat CPU 0 instructions: 870000001 cycles: 567666989 heartbeat IPC: 1.6479 cumulative IPC: 1.29435 (Simulation time: 0 hr 58 min 19 sec) 
Heartbeat CPU 0 instructions: 880000001 cycles: 573745066 heartbeat IPC: 1.64526 cumulative IPC: 1.29842 (Simulation time: 0 hr 59 min 9 sec) 
Heartbeat CPU 0 instructions: 890000004 cycles: 579812706 heartbeat IPC: 1.64809 cumulative IPC: 1.30243 (Simulation time: 0 hr 59 min 59 sec) 
Heartbeat CPU 0 instructions: 900000003 cycles: 585885705 heartbeat IPC: 1.64663 cumulative IPC: 1.30633 (Simulation time: 1 hr 0 min 49 sec) 
Heartbeat CPU 0 instructions: 910000000 cycles: 591960413 heartbeat IPC: 1.64617 cumulative IPC: 1.31014 (Simulation time: 1 hr 1 min 39 sec) 
Heartbeat CPU 0 instructions: 920000000 cycles: 598026322 heartbeat IPC: 1.64856 cumulative IPC: 1.31388 (Simulation time: 1 hr 2 min 29 sec) 
Heartbeat CPU 0 instructions: 930000002 cycles: 604105872 heartbeat IPC: 1.64486 cumulative IPC: 1.31752 (Simulation time: 1 hr 3 min 20 sec) 
Heartbeat CPU 0 instructions: 940000000 cycles: 618203612 heartbeat IPC: 0.709333 cumulative IPC: 1.30242 (Simulation time: 1 hr 4 min 45 sec) 
Heartbeat CPU 0 instructions: 950000002 cycles: 624278474 heartbeat IPC: 1.64613 cumulative IPC: 1.30606 (Simulation time: 1 hr 5 min 35 sec) 
Heartbeat CPU 0 instructions: 960000000 cycles: 630351943 heartbeat IPC: 1.64651 cumulative IPC: 1.30962 (Simulation time: 1 hr 6 min 25 sec) 
Heartbeat CPU 0 instructions: 970000002 cycles: 636419637 heartbeat IPC: 1.64807 cumulative IPC: 1.31313 (Simulation time: 1 hr 7 min 15 sec) 
Heartbeat CPU 0 instructions: 980000001 cycles: 642499646 heartbeat IPC: 1.64473 cumulative IPC: 1.31653 (Simulation time: 1 hr 8 min 5 sec) 
Heartbeat CPU 0 instructions: 990000003 cycles: 648568472 heartbeat IPC: 1.64777 cumulative IPC: 1.31989 (Simulation time: 1 hr 8 min 55 sec) 
Heartbeat CPU 0 instructions: 1000000003 cycles: 654643004 heartbeat IPC: 1.64622 cumulative IPC: 1.32317 (Simulation time: 1 hr 9 min 45 sec) 
Heartbeat CPU 0 instructions: 1010000002 cycles: 669616438 heartbeat IPC: 0.667849 cumulative IPC: 1.30733 (Simulation time: 1 hr 11 min 14 sec) 
Heartbeat CPU 0 instructions: 1020000002 cycles: 675686477 heartbeat IPC: 1.64744 cumulative IPC: 1.31063 (Simulation time: 1 hr 12 min 4 sec) 
Heartbeat CPU 0 instructions: 1030000000 cycles: 681766823 heartbeat IPC: 1.64464 cumulative IPC: 1.31384 (Simulation time: 1 hr 12 min 54 sec) 
Heartbeat CPU 0 instructions: 1040000000 cycles: 687832299 heartbeat IPC: 1.64868 cumulative IPC: 1.31703 (Simulation time: 1 hr 13 min 45 sec) 
Heartbeat CPU 0 instructions: 1050000000 cycles: 693908409 heartbeat IPC: 1.64579 cumulative IPC: 1.32013 (Simulation time: 1 hr 14 min 35 sec) 
Heartbeat CPU 0 instructions: 1060000000 cycles: 699981156 heartbeat IPC: 1.6467 cumulative IPC: 1.32318 (Simulation time: 1 hr 15 min 25 sec) 
Heartbeat CPU 0 instructions: 1070000001 cycles: 706051630 heartbeat IPC: 1.64732 cumulative IPC: 1.32618 (Simulation time: 1 hr 16 min 16 sec) 
Heartbeat CPU 0 instructions: 1080000003 cycles: 715939896 heartbeat IPC: 1.0113 cumulative IPC: 1.32151 (Simulation time: 1 hr 17 min 19 sec) 
Heartbeat CPU 0 instructions: 1090000000 cycles: 725971591 heartbeat IPC: 0.99684 cumulative IPC: 1.31669 (Simulation time: 1 hr 18 min 30 sec) 
Heartbeat CPU 0 instructions: 1100000000 cycles: 732046132 heartbeat IPC: 1.64621 cumulative IPC: 1.31962 (Simulation time: 1 hr 19 min 20 sec) 
Heartbeat CPU 0 instructions: 1110000002 cycles: 738119550 heartbeat IPC: 1.64652 cumulative IPC: 1.32251 (Simulation time: 1 hr 20 min 11 sec) 
Heartbeat CPU 0 instructions: 1120000000 cycles: 744187137 heartbeat IPC: 1.6481 cumulative IPC: 1.32535 (Simulation time: 1 hr 21 min 1 sec) 
Heartbeat CPU 0 instructions: 1130000000 cycles: 750266216 heartbeat IPC: 1.64499 cumulative IPC: 1.32813 (Simulation time: 1 hr 21 min 52 sec) 
Heartbeat CPU 0 instructions: 1140000000 cycles: 756331935 heartbeat IPC: 1.64861 cumulative IPC: 1.33088 (Simulation time: 1 hr 22 min 42 sec) 
Heartbeat CPU 0 instructions: 1150000003 cycles: 762407923 heartbeat IPC: 1.64582 cumulative IPC: 1.33357 (Simulation time: 1 hr 23 min 33 sec) 
Heartbeat CPU 0 instructions: 1160000001 cycles: 777631248 heartbeat IPC: 0.656887 cumulative IPC: 1.31941 (Simulation time: 1 hr 25 min 1 sec) 
Heartbeat CPU 0 instructions: 1170000000 cycles: 783703584 heartbeat IPC: 1.64681 cumulative IPC: 1.32212 (Simulation time: 1 hr 25 min 52 sec) 
Heartbeat CPU 0 instructions: 1180000000 cycles: 789784015 heartbeat IPC: 1.64462 cumulative IPC: 1.32477 (Simulation time: 1 hr 26 min 43 sec) 
Heartbeat CPU 0 instructions: 1190000001 cycles: 795848293 heartbeat IPC: 1.649 cumulative IPC: 1.32741 (Simulation time: 1 hr 27 min 34 sec) 
Heartbeat CPU 0 instructions: 1200000000 cycles: 801926504 heartbeat IPC: 1.64522 cumulative IPC: 1.32997 (Simulation time: 1 hr 28 min 25 sec) 
Finished CPU 0 instructions: 1000000000 cycles: 751893978 cumulative IPC: 1.32997 (Simulation time: 1 hr 28 min 25 sec) 

ChampSim completed all CPUs

Region of Interest Statistics

CPU 0 cumulative IPC: 1.32997 instructions: 1000000000 cycles: 751893978
cpu0_DTLB TOTAL     ACCESS:  164881854  HIT:  164826896  MISS:      54958
cpu0_DTLB LOAD      ACCESS:  113681839  HIT:  113642592  MISS:      39247
cpu0_DTLB RFO       ACCESS:   51200015  HIT:   51184304  MISS:      15711
cpu0_DTLB PREFETCH  ACCESS:          0  HIT:          0  MISS:          0
cpu0_DTLB WRITEBACK ACCESS:          0  HIT:          0  MISS:          0
cpu0_DTLB TRANSLATION ACCESS:          0  HIT:          0  MISS:          0
cpu0_DTLB PREFETCH  REQUESTED:          0  ISSUED:          0  USEFUL:          0  USELESS:          0
cpu0_DTLB AVERAGE MISS LATENCY: 86.5979 cycles
cpu0_ITLB TOTAL     ACCESS:   65994078  HIT:   65994071  MISS:          7
cpu0_ITLB LOAD      ACCESS:   65994078  HIT:   65994071  MISS:          7
cpu0_ITLB RFO       ACCESS:          0  HIT:          0  MISS:          0
cpu0_ITLB PREFETCH  ACCESS:          0  HIT:          0  MISS:          0
cpu0_ITLB WRITEBACK ACCESS:          0  HIT:          0  MISS:          0
cpu0_ITLB TRANSLATION ACCESS:          0  HIT:          0  MISS:          0
cpu0_ITLB PREFETCH  REQUESTED:          0  ISSUED:          0  USEFUL:          0  USELESS:          0
cpu0_ITLB AVERAGE MISS LATENCY: 286.571 cycles
cpu0_L1I TOTAL     ACCESS:   64690032  HIT:   64689961  MISS:         71
cpu0_L1I LOAD      ACCESS:   64690032  HIT:   64689961  MISS:         71
cpu0_L1I RFO       ACCESS:          0  HIT:          0  MISS:          0
cpu0_L1I PREFETCH  ACCESS:          0  HIT:          0  MISS:          0
cpu0_L1I WRITEBACK ACCESS:          0  HIT:          0  MISS:          0
cpu0_L1I TRANSLATION ACCESS:          0  HIT:          0  MISS:          0
cpu0_L1I PREFETCH  REQUESTED:          0  ISSUED:          0  USEFUL:          0  USELESS:          0
cpu0_L1I AVERAGE MISS LATENCY: 239.31 cycles
cpu0_STLB TOTAL     ACCESS:      54965  HIT:       4565  MISS:      50400
cpu0_STLB LOAD      ACCESS:      39254  HIT:       4507  MISS:      34747
cpu0_STLB RFO       ACCESS:      15711  HIT:         58  MISS:      15653
cpu0_STLB PREFETCH  ACCESS:          0  HIT:          0  MISS:          0
cpu0_STLB WRITEBACK ACCESS:          0  HIT:          0  MISS:          0
cpu0_STLB TRANSLATION ACCESS:          0  HIT:          0  MISS:          0
cpu0_STLB PREFETCH  REQUESTED:          0  ISSUED:          0  USEFUL:          0  USELESS:          0
cpu0_STLB AVERAGE MISS LATENCY: 84.6531 cycles
cpu0_L1D TOTAL     ACCESS:  206443194  HIT:  203940544  MISS:    2502650
cpu0_L1D LOAD      ACCESS:  116971163  HIT:  115468405  MISS:    1502758
cpu0_L1D RFO       ACCESS:   89421742  HIT:   88422075  MISS:     999667
cpu0_L1D PREFETCH  ACCESS:          0  HIT:          0  MISS:          0
cpu0_L1D WRITEBACK ACCESS:          0  HIT:          0  MISS:          0
cpu0_L1D TRANSLATION ACCESS:      50289  HIT:      50064  MISS:        225
cpu0_L1D PREFETCH  REQUESTED:          0  ISSUED:          0  USEFUL:          0  USELESS:          0
cpu0_L1D AVERAGE MISS LATENCY: 408.995 cycles
cpu0_L2C TOTAL     ACCESS:    4183912  HIT:    1669569  MISS:    2514343
cpu0_L2C LOAD      ACCESS:    1502829  HIT:     664270  MISS:     838559
cpu0_L2C RFO       ACCESS:     999667  HIT:        400  MISS:     999267
cpu0_L2C PREFETCH  ACCESS:     681421  HIT:       7101  MISS:     674320
cpu0_L2C WRITEBACK ACCESS:     999770  HIT:     997751  MISS:       2019
cpu0_L2C TRANSLATION ACCESS:        225  HIT:         47  MISS:        178
cpu0_L2C PREFETCH  REQUESTED:   12976825  ISSUED:   11643826  USEFUL:     921878  USELESS:      10204
cpu0_L2C AVERAGE MISS LATENCY: 365.728 cycles
LLC TOTAL     ACCESS:   10121625  HIT:    7481833  MISS:    2639792
LLC LOAD      ACCESS:     580798  HIT:     347995  MISS:     232803
LLC RFO       ACCESS:     999267  HIT:         80  MISS:     999187
LLC PREFETCH  ACCESS:    7542144  HIT:    6136555  MISS:    1405589
LLC WRITEBACK ACCESS:     999238  HIT:     997187  MISS:       2051
LLC TRANSLATION ACCESS:        178  HIT:         16  MISS:        162
LLC PREFETCH  REQUESTED:          0  ISSUED:          0  USEFUL:          0  USELESS:          0
LLC AVERAGE MISS LATENCY: 697.241 cycles

DRAM Statistics
 CHANNEL 0
 RQ ROW_BUFFER_HIT:     341114  ROW_BUFFER_MISS:    2296627
 DBUS AVG_CONGESTED_CYCLE:    3.98165
 WQ ROW_BUFFER_HIT:     121184  ROW_BUFFER_MISS:     877422  FULL:          0


CPU 0 Branch Prediction Accuracy: 90.3742% MPKI: 11.5802 Average ROB Occupancy at Mispredict: 21.4132
Branch type MPKI
BRANCH_DIRECT_JUMP: 8e-06
BRANCH_INDIRECT: 0
BRANCH_CONDITIONAL: 11.5801
BRANCH_DIRECT_CALL: 8e-06
BRANCH_INDIRECT_CALL: 0
BRANCH_RETURN: 9e-06

