Started running file 625.x264_s-18B.champsimtrace.xz at time Thu Apr 14 22:31:04 CDT 2022 with prefetcher spp-dev

*** ChampSim Multicore Out-of-Order Simulator ***

Warmup Instructions: 200000000
Simulation Instructions: 1000000000
Number of CPUs: 1
Off-chip DRAM Size: 4 GiB Channels: 1 Width: 64-bit Data Rate: 3200 MT/s

VirtualMemory physical capacity: 8588881920 num_ppages: 2096895
VirtualMemory page size: 4096 log2_page_size: 12

CPU 0 runs /home/faculty/p/pgratz/dpc3_traces/625.x264_s-18B.champsimtrace.xz
CPU 0 Bimodal branch predictor
Basic BTB sets: 1024 ways: 8 indirect buffer size: 4096 RAS size: 64
SPP-DEV original prefetcher
Heartbeat CPU 0 instructions: 10000003 cycles: 2500087 heartbeat IPC: 3.99986 cumulative IPC: 3.99986 (Simulation time: 0 hr 0 min 29 sec) 
Heartbeat CPU 0 instructions: 20000003 cycles: 5000087 heartbeat IPC: 4 cumulative IPC: 3.99993 (Simulation time: 0 hr 0 min 58 sec) 
Heartbeat CPU 0 instructions: 30000001 cycles: 7500258 heartbeat IPC: 3.99973 cumulative IPC: 3.99986 (Simulation time: 0 hr 1 min 27 sec) 
Heartbeat CPU 0 instructions: 40000001 cycles: 10000258 heartbeat IPC: 4 cumulative IPC: 3.9999 (Simulation time: 0 hr 1 min 56 sec) 
Heartbeat CPU 0 instructions: 50000001 cycles: 12500258 heartbeat IPC: 4 cumulative IPC: 3.99992 (Simulation time: 0 hr 2 min 25 sec) 
Heartbeat CPU 0 instructions: 60000001 cycles: 15000258 heartbeat IPC: 4 cumulative IPC: 3.99993 (Simulation time: 0 hr 2 min 54 sec) 
Heartbeat CPU 0 instructions: 70000001 cycles: 17500258 heartbeat IPC: 4 cumulative IPC: 3.99994 (Simulation time: 0 hr 3 min 23 sec) 
Heartbeat CPU 0 instructions: 80000001 cycles: 20000258 heartbeat IPC: 4 cumulative IPC: 3.99995 (Simulation time: 0 hr 3 min 52 sec) 
Heartbeat CPU 0 instructions: 90000001 cycles: 22500258 heartbeat IPC: 4 cumulative IPC: 3.99995 (Simulation time: 0 hr 4 min 21 sec) 
Heartbeat CPU 0 instructions: 100000001 cycles: 25000258 heartbeat IPC: 4 cumulative IPC: 3.99996 (Simulation time: 0 hr 4 min 50 sec) 
Heartbeat CPU 0 instructions: 110000001 cycles: 27500258 heartbeat IPC: 4 cumulative IPC: 3.99996 (Simulation time: 0 hr 5 min 19 sec) 
Heartbeat CPU 0 instructions: 120000001 cycles: 30000258 heartbeat IPC: 4 cumulative IPC: 3.99997 (Simulation time: 0 hr 5 min 48 sec) 
Heartbeat CPU 0 instructions: 130000001 cycles: 32500258 heartbeat IPC: 4 cumulative IPC: 3.99997 (Simulation time: 0 hr 6 min 17 sec) 
Heartbeat CPU 0 instructions: 140000000 cycles: 35011567 heartbeat IPC: 3.98199 cumulative IPC: 3.99868 (Simulation time: 0 hr 6 min 47 sec) 
Heartbeat CPU 0 instructions: 150000003 cycles: 37563547 heartbeat IPC: 3.91853 cumulative IPC: 3.99323 (Simulation time: 0 hr 7 min 17 sec) 
Heartbeat CPU 0 instructions: 160000003 cycles: 40086429 heartbeat IPC: 3.96372 cumulative IPC: 3.99138 (Simulation time: 0 hr 7 min 45 sec) 
Heartbeat CPU 0 instructions: 170000003 cycles: 42614647 heartbeat IPC: 3.95536 cumulative IPC: 3.98924 (Simulation time: 0 hr 8 min 14 sec) 
Heartbeat CPU 0 instructions: 180000001 cycles: 45135711 heartbeat IPC: 3.96658 cumulative IPC: 3.98797 (Simulation time: 0 hr 8 min 43 sec) 
Heartbeat CPU 0 instructions: 190000003 cycles: 47662035 heartbeat IPC: 3.95832 cumulative IPC: 3.9864 (Simulation time: 0 hr 9 min 12 sec) 
Heartbeat CPU 0 instructions: 200000002 cycles: 50192829 heartbeat IPC: 3.95133 cumulative IPC: 3.98463 (Simulation time: 0 hr 9 min 41 sec) 

Warmup complete CPU 0 instructions: 200000002 cycles: 50192829 (Simulation time: 0 hr 9 min 41 sec) 

Heartbeat CPU 0 instructions: 210000001 cycles: 54008202 heartbeat IPC: 2.62098 cumulative IPC: 2.62098 (Simulation time: 0 hr 10 min 10 sec) 
Heartbeat CPU 0 instructions: 220000002 cycles: 57929989 heartbeat IPC: 2.54986 cumulative IPC: 2.58493 (Simulation time: 0 hr 10 min 38 sec) 
Heartbeat CPU 0 instructions: 230000003 cycles: 61860353 heartbeat IPC: 2.54429 cumulative IPC: 2.57124 (Simulation time: 0 hr 11 min 7 sec) 
Heartbeat CPU 0 instructions: 240000004 cycles: 65747584 heartbeat IPC: 2.57253 cumulative IPC: 2.57156 (Simulation time: 0 hr 11 min 36 sec) 
Heartbeat CPU 0 instructions: 250000004 cycles: 69709716 heartbeat IPC: 2.52389 cumulative IPC: 2.56188 (Simulation time: 0 hr 12 min 5 sec) 
Heartbeat CPU 0 instructions: 260000001 cycles: 73567493 heartbeat IPC: 2.59217 cumulative IPC: 2.56688 (Simulation time: 0 hr 12 min 34 sec) 
Heartbeat CPU 0 instructions: 270000001 cycles: 77427785 heartbeat IPC: 2.59048 cumulative IPC: 2.57023 (Simulation time: 0 hr 13 min 3 sec) 
Heartbeat CPU 0 instructions: 280000000 cycles: 81376006 heartbeat IPC: 2.53279 cumulative IPC: 2.56549 (Simulation time: 0 hr 13 min 32 sec) 
Heartbeat CPU 0 instructions: 290000001 cycles: 85233329 heartbeat IPC: 2.59247 cumulative IPC: 2.56846 (Simulation time: 0 hr 14 min 1 sec) 
Heartbeat CPU 0 instructions: 300000002 cycles: 89065357 heartbeat IPC: 2.60958 cumulative IPC: 2.57251 (Simulation time: 0 hr 14 min 30 sec) 
Heartbeat CPU 0 instructions: 310000001 cycles: 93041623 heartbeat IPC: 2.51492 cumulative IPC: 2.56717 (Simulation time: 0 hr 14 min 59 sec) 
Heartbeat CPU 0 instructions: 320000001 cycles: 96881356 heartbeat IPC: 2.60435 cumulative IPC: 2.57022 (Simulation time: 0 hr 15 min 27 sec) 
Heartbeat CPU 0 instructions: 330000002 cycles: 100706275 heartbeat IPC: 2.61443 cumulative IPC: 2.57357 (Simulation time: 0 hr 15 min 56 sec) 
Heartbeat CPU 0 instructions: 340000001 cycles: 104531724 heartbeat IPC: 2.61407 cumulative IPC: 2.57642 (Simulation time: 0 hr 16 min 25 sec) 
Heartbeat CPU 0 instructions: 350000000 cycles: 108369708 heartbeat IPC: 2.60553 cumulative IPC: 2.57834 (Simulation time: 0 hr 16 min 54 sec) 
Heartbeat CPU 0 instructions: 360000002 cycles: 112191035 heartbeat IPC: 2.61689 cumulative IPC: 2.58072 (Simulation time: 0 hr 17 min 23 sec) 
Heartbeat CPU 0 instructions: 370000000 cycles: 116007424 heartbeat IPC: 2.62028 cumulative IPC: 2.58301 (Simulation time: 0 hr 17 min 52 sec) 
Heartbeat CPU 0 instructions: 380000002 cycles: 119849810 heartbeat IPC: 2.60255 cumulative IPC: 2.58409 (Simulation time: 0 hr 18 min 21 sec) 
Heartbeat CPU 0 instructions: 390000002 cycles: 123713264 heartbeat IPC: 2.58836 cumulative IPC: 2.58432 (Simulation time: 0 hr 18 min 50 sec) 
Heartbeat CPU 0 instructions: 400000001 cycles: 132340656 heartbeat IPC: 1.1591 cumulative IPC: 2.43464 (Simulation time: 0 hr 19 min 46 sec) 
Heartbeat CPU 0 instructions: 410000003 cycles: 135941478 heartbeat IPC: 2.77714 cumulative IPC: 2.44902 (Simulation time: 0 hr 20 min 35 sec) 
Heartbeat CPU 0 instructions: 420000002 cycles: 139971071 heartbeat IPC: 2.48164 cumulative IPC: 2.45048 (Simulation time: 0 hr 21 min 18 sec) 
Heartbeat CPU 0 instructions: 430000001 cycles: 144104865 heartbeat IPC: 2.41909 cumulative IPC: 2.4491 (Simulation time: 0 hr 21 min 50 sec) 
Heartbeat CPU 0 instructions: 440000001 cycles: 147732871 heartbeat IPC: 2.75634 cumulative IPC: 2.46053 (Simulation time: 0 hr 22 min 20 sec) 
Heartbeat CPU 0 instructions: 450000001 cycles: 151316711 heartbeat IPC: 2.7903 cumulative IPC: 2.47222 (Simulation time: 0 hr 22 min 51 sec) 
Heartbeat CPU 0 instructions: 460000004 cycles: 154962947 heartbeat IPC: 2.74256 cumulative IPC: 2.48162 (Simulation time: 0 hr 23 min 22 sec) 
Heartbeat CPU 0 instructions: 470000000 cycles: 158606554 heartbeat IPC: 2.74453 cumulative IPC: 2.49046 (Simulation time: 0 hr 23 min 53 sec) 
Heartbeat CPU 0 instructions: 480000002 cycles: 162236544 heartbeat IPC: 2.75483 cumulative IPC: 2.49902 (Simulation time: 0 hr 24 min 23 sec) 
Heartbeat CPU 0 instructions: 490000003 cycles: 165908247 heartbeat IPC: 2.72353 cumulative IPC: 2.50615 (Simulation time: 0 hr 24 min 54 sec) 
Heartbeat CPU 0 instructions: 500000002 cycles: 169545971 heartbeat IPC: 2.74897 cumulative IPC: 2.51355 (Simulation time: 0 hr 25 min 25 sec) 
Heartbeat CPU 0 instructions: 510000004 cycles: 173167756 heartbeat IPC: 2.76107 cumulative IPC: 2.52084 (Simulation time: 0 hr 25 min 56 sec) 
Heartbeat CPU 0 instructions: 520000003 cycles: 176747979 heartbeat IPC: 2.79312 cumulative IPC: 2.52854 (Simulation time: 0 hr 26 min 27 sec) 
Heartbeat CPU 0 instructions: 530000003 cycles: 180372758 heartbeat IPC: 2.75879 cumulative IPC: 2.53495 (Simulation time: 0 hr 26 min 57 sec) 
Heartbeat CPU 0 instructions: 540000004 cycles: 184012504 heartbeat IPC: 2.74744 cumulative IPC: 2.54073 (Simulation time: 0 hr 27 min 28 sec) 
Heartbeat CPU 0 instructions: 550000001 cycles: 187551021 heartbeat IPC: 2.82604 cumulative IPC: 2.54808 (Simulation time: 0 hr 27 min 59 sec) 
Heartbeat CPU 0 instructions: 560000000 cycles: 191133280 heartbeat IPC: 2.79153 cumulative IPC: 2.55427 (Simulation time: 0 hr 28 min 30 sec) 
Heartbeat CPU 0 instructions: 570000004 cycles: 199530097 heartbeat IPC: 1.19093 cumulative IPC: 2.47761 (Simulation time: 0 hr 29 min 30 sec) 
Heartbeat CPU 0 instructions: 580000004 cycles: 203243490 heartbeat IPC: 2.69296 cumulative IPC: 2.48284 (Simulation time: 0 hr 30 min 28 sec) 
Heartbeat CPU 0 instructions: 590000004 cycles: 207437242 heartbeat IPC: 2.3845 cumulative IPC: 2.48022 (Simulation time: 0 hr 30 min 58 sec) 
Heartbeat CPU 0 instructions: 600000003 cycles: 211341329 heartbeat IPC: 2.56142 cumulative IPC: 2.48218 (Simulation time: 0 hr 31 min 32 sec) 
Heartbeat CPU 0 instructions: 610000000 cycles: 215297024 heartbeat IPC: 2.528 cumulative IPC: 2.48328 (Simulation time: 0 hr 32 min 5 sec) 
Heartbeat CPU 0 instructions: 620000003 cycles: 219227626 heartbeat IPC: 2.54414 cumulative IPC: 2.4847 (Simulation time: 0 hr 32 min 39 sec) 
Heartbeat CPU 0 instructions: 630000003 cycles: 223182255 heartbeat IPC: 2.52868 cumulative IPC: 2.4857 (Simulation time: 0 hr 33 min 13 sec) 
Heartbeat CPU 0 instructions: 640000002 cycles: 227112924 heartbeat IPC: 2.5441 cumulative IPC: 2.487 (Simulation time: 0 hr 33 min 46 sec) 
Heartbeat CPU 0 instructions: 650000002 cycles: 231021537 heartbeat IPC: 2.55845 cumulative IPC: 2.48854 (Simulation time: 0 hr 34 min 20 sec) 
Heartbeat CPU 0 instructions: 660000000 cycles: 234922932 heartbeat IPC: 2.56319 cumulative IPC: 2.49012 (Simulation time: 0 hr 34 min 54 sec) 
Heartbeat CPU 0 instructions: 670000001 cycles: 242965528 heartbeat IPC: 1.24338 cumulative IPC: 2.4381 (Simulation time: 0 hr 35 min 59 sec) 
Heartbeat CPU 0 instructions: 680000002 cycles: 246900595 heartbeat IPC: 2.54125 cumulative IPC: 2.44017 (Simulation time: 0 hr 36 min 49 sec) 
Heartbeat CPU 0 instructions: 690000000 cycles: 251004664 heartbeat IPC: 2.43661 cumulative IPC: 2.4401 (Simulation time: 0 hr 37 min 21 sec) 
Heartbeat CPU 0 instructions: 700000000 cycles: 254942650 heartbeat IPC: 2.53937 cumulative IPC: 2.442 (Simulation time: 0 hr 37 min 55 sec) 
Heartbeat CPU 0 instructions: 710000002 cycles: 258888203 heartbeat IPC: 2.5345 cumulative IPC: 2.44375 (Simulation time: 0 hr 38 min 28 sec) 
Heartbeat CPU 0 instructions: 720000001 cycles: 262824149 heartbeat IPC: 2.54068 cumulative IPC: 2.44555 (Simulation time: 0 hr 39 min 2 sec) 
Heartbeat CPU 0 instructions: 730000000 cycles: 266763146 heartbeat IPC: 2.53872 cumulative IPC: 2.44724 (Simulation time: 0 hr 39 min 36 sec) 
Heartbeat CPU 0 instructions: 740000002 cycles: 270681483 heartbeat IPC: 2.5521 cumulative IPC: 2.44911 (Simulation time: 0 hr 40 min 9 sec) 
Heartbeat CPU 0 instructions: 750000001 cycles: 274622461 heartbeat IPC: 2.53744 cumulative IPC: 2.45066 (Simulation time: 0 hr 40 min 43 sec) 
Heartbeat CPU 0 instructions: 760000000 cycles: 282811067 heartbeat IPC: 1.22121 cumulative IPC: 2.40738 (Simulation time: 0 hr 41 min 38 sec) 
Heartbeat CPU 0 instructions: 770000004 cycles: 286357253 heartbeat IPC: 2.81993 cumulative IPC: 2.41357 (Simulation time: 0 hr 42 min 30 sec) 
Heartbeat CPU 0 instructions: 780000003 cycles: 290516786 heartbeat IPC: 2.40412 cumulative IPC: 2.41341 (Simulation time: 0 hr 43 min 10 sec) 
Heartbeat CPU 0 instructions: 790000000 cycles: 294264357 heartbeat IPC: 2.66839 cumulative IPC: 2.41732 (Simulation time: 0 hr 43 min 37 sec) 
Heartbeat CPU 0 instructions: 800000002 cycles: 298013691 heartbeat IPC: 2.66714 cumulative IPC: 2.4211 (Simulation time: 0 hr 44 min 5 sec) 
Heartbeat CPU 0 instructions: 810000004 cycles: 301767176 heartbeat IPC: 2.66419 cumulative IPC: 2.42473 (Simulation time: 0 hr 44 min 33 sec) 
Heartbeat CPU 0 instructions: 820000000 cycles: 305524096 heartbeat IPC: 2.66175 cumulative IPC: 2.42822 (Simulation time: 0 hr 45 min 0 sec) 
Heartbeat CPU 0 instructions: 830000000 cycles: 309274951 heartbeat IPC: 2.66606 cumulative IPC: 2.43166 (Simulation time: 0 hr 45 min 28 sec) 
Heartbeat CPU 0 instructions: 840000003 cycles: 313041251 heartbeat IPC: 2.65513 cumulative IPC: 2.43486 (Simulation time: 0 hr 45 min 56 sec) 
Heartbeat CPU 0 instructions: 850000000 cycles: 316766834 heartbeat IPC: 2.68414 cumulative IPC: 2.43835 (Simulation time: 0 hr 46 min 23 sec) 
Heartbeat CPU 0 instructions: 860000000 cycles: 320502297 heartbeat IPC: 2.67704 cumulative IPC: 2.44165 (Simulation time: 0 hr 46 min 51 sec) 
Heartbeat CPU 0 instructions: 870000004 cycles: 324218870 heartbeat IPC: 2.69065 cumulative IPC: 2.44502 (Simulation time: 0 hr 47 min 19 sec) 
Heartbeat CPU 0 instructions: 880000001 cycles: 328025708 heartbeat IPC: 2.62685 cumulative IPC: 2.44751 (Simulation time: 0 hr 47 min 46 sec) 
Heartbeat CPU 0 instructions: 890000001 cycles: 331858626 heartbeat IPC: 2.60898 cumulative IPC: 2.44971 (Simulation time: 0 hr 48 min 14 sec) 
Heartbeat CPU 0 instructions: 900000000 cycles: 335695419 heartbeat IPC: 2.60634 cumulative IPC: 2.45182 (Simulation time: 0 hr 48 min 41 sec) 
Heartbeat CPU 0 instructions: 910000001 cycles: 339534753 heartbeat IPC: 2.60462 cumulative IPC: 2.45384 (Simulation time: 0 hr 49 min 8 sec) 
Heartbeat CPU 0 instructions: 920000000 cycles: 343390280 heartbeat IPC: 2.59368 cumulative IPC: 2.45568 (Simulation time: 0 hr 49 min 36 sec) 
Heartbeat CPU 0 instructions: 930000000 cycles: 347237418 heartbeat IPC: 2.59933 cumulative IPC: 2.45754 (Simulation time: 0 hr 50 min 3 sec) 
Heartbeat CPU 0 instructions: 940000003 cycles: 351067765 heartbeat IPC: 2.61073 cumulative IPC: 2.45949 (Simulation time: 0 hr 50 min 31 sec) 
Heartbeat CPU 0 instructions: 950000002 cycles: 354906340 heartbeat IPC: 2.60513 cumulative IPC: 2.46133 (Simulation time: 0 hr 50 min 58 sec) 
Heartbeat CPU 0 instructions: 960000002 cycles: 358747328 heartbeat IPC: 2.6035 cumulative IPC: 2.4631 (Simulation time: 0 hr 51 min 26 sec) 
Heartbeat CPU 0 instructions: 970000002 cycles: 362582060 heartbeat IPC: 2.60774 cumulative IPC: 2.46487 (Simulation time: 0 hr 51 min 53 sec) 
Heartbeat CPU 0 instructions: 980000003 cycles: 366368503 heartbeat IPC: 2.641 cumulative IPC: 2.46698 (Simulation time: 0 hr 52 min 21 sec) 
Heartbeat CPU 0 instructions: 990000000 cycles: 370191325 heartbeat IPC: 2.61587 cumulative IPC: 2.46876 (Simulation time: 0 hr 52 min 48 sec) 
Heartbeat CPU 0 instructions: 1000000003 cycles: 374006761 heartbeat IPC: 2.62093 cumulative IPC: 2.47055 (Simulation time: 0 hr 53 min 16 sec) 
Heartbeat CPU 0 instructions: 1010000000 cycles: 377784355 heartbeat IPC: 2.64719 cumulative IPC: 2.47259 (Simulation time: 0 hr 53 min 44 sec) 
Heartbeat CPU 0 instructions: 1020000002 cycles: 381259731 heartbeat IPC: 2.87739 cumulative IPC: 2.47684 (Simulation time: 0 hr 54 min 14 sec) 
Heartbeat CPU 0 instructions: 1030000004 cycles: 384512934 heartbeat IPC: 3.07389 cumulative IPC: 2.48265 (Simulation time: 0 hr 54 min 42 sec) 
Heartbeat CPU 0 instructions: 1040000004 cycles: 387763924 heartbeat IPC: 3.07599 cumulative IPC: 2.48836 (Simulation time: 0 hr 55 min 10 sec) 
Heartbeat CPU 0 instructions: 1050000000 cycles: 391014165 heartbeat IPC: 3.07669 cumulative IPC: 2.49398 (Simulation time: 0 hr 55 min 39 sec) 
Heartbeat CPU 0 instructions: 1060000000 cycles: 394846900 heartbeat IPC: 2.6091 cumulative IPC: 2.49526 (Simulation time: 0 hr 56 min 7 sec) 
Heartbeat CPU 0 instructions: 1070000000 cycles: 398860430 heartbeat IPC: 2.49157 cumulative IPC: 2.49521 (Simulation time: 0 hr 56 min 35 sec) 
Heartbeat CPU 0 instructions: 1080000002 cycles: 402886362 heartbeat IPC: 2.4839 cumulative IPC: 2.49508 (Simulation time: 0 hr 57 min 2 sec) 
Heartbeat CPU 0 instructions: 1090000002 cycles: 406907336 heartbeat IPC: 2.48696 cumulative IPC: 2.49499 (Simulation time: 0 hr 57 min 30 sec) 
Heartbeat CPU 0 instructions: 1100000003 cycles: 410904498 heartbeat IPC: 2.50178 cumulative IPC: 2.49507 (Simulation time: 0 hr 57 min 58 sec) 
Heartbeat CPU 0 instructions: 1110000001 cycles: 414697124 heartbeat IPC: 2.63669 cumulative IPC: 2.49654 (Simulation time: 0 hr 58 min 25 sec) 
Heartbeat CPU 0 instructions: 1120000000 cycles: 418453268 heartbeat IPC: 2.6623 cumulative IPC: 2.49823 (Simulation time: 0 hr 58 min 53 sec) 
Heartbeat CPU 0 instructions: 1130000001 cycles: 422208122 heartbeat IPC: 2.66322 cumulative IPC: 2.4999 (Simulation time: 0 hr 59 min 21 sec) 
Heartbeat CPU 0 instructions: 1140000002 cycles: 425968001 heartbeat IPC: 2.65966 cumulative IPC: 2.5015 (Simulation time: 0 hr 59 min 48 sec) 
Heartbeat CPU 0 instructions: 1150000001 cycles: 429698441 heartbeat IPC: 2.68065 cumulative IPC: 2.50326 (Simulation time: 1 hr 0 min 16 sec) 
Heartbeat CPU 0 instructions: 1160000003 cycles: 433442196 heartbeat IPC: 2.67112 cumulative IPC: 2.5049 (Simulation time: 1 hr 0 min 44 sec) 
Heartbeat CPU 0 instructions: 1170000000 cycles: 437168803 heartbeat IPC: 2.68341 cumulative IPC: 2.50662 (Simulation time: 1 hr 1 min 11 sec) 
Heartbeat CPU 0 instructions: 1180000002 cycles: 440889362 heartbeat IPC: 2.68777 cumulative IPC: 2.50834 (Simulation time: 1 hr 1 min 39 sec) 
Heartbeat CPU 0 instructions: 1190000003 cycles: 444582427 heartbeat IPC: 2.70778 cumulative IPC: 2.51021 (Simulation time: 1 hr 2 min 7 sec) 
Heartbeat CPU 0 instructions: 1200000000 cycles: 448280369 heartbeat IPC: 2.70421 cumulative IPC: 2.51201 (Simulation time: 1 hr 2 min 34 sec) 
Finished CPU 0 instructions: 1000000003 cycles: 398087541 cumulative IPC: 2.51201 (Simulation time: 1 hr 2 min 34 sec) 

ChampSim completed all CPUs

Region of Interest Statistics

CPU 0 cumulative IPC: 2.51201 instructions: 1000000003 cycles: 398087541
cpu0_DTLB TOTAL     ACCESS:  122364388  HIT:  121298093  MISS:    1066295
cpu0_DTLB LOAD      ACCESS:   86359270  HIT:   85673147  MISS:     686123
cpu0_DTLB RFO       ACCESS:   36005118  HIT:   35624946  MISS:     380172
cpu0_DTLB PREFETCH  ACCESS:          0  HIT:          0  MISS:          0
cpu0_DTLB WRITEBACK ACCESS:          0  HIT:          0  MISS:          0
cpu0_DTLB TRANSLATION ACCESS:          0  HIT:          0  MISS:          0
cpu0_DTLB PREFETCH  REQUESTED:          0  ISSUED:          0  USEFUL:          0  USELESS:          0
cpu0_DTLB AVERAGE MISS LATENCY: 12.3434 cycles
cpu0_ITLB TOTAL     ACCESS:   64384214  HIT:   64382747  MISS:       1467
cpu0_ITLB LOAD      ACCESS:   64384214  HIT:   64382747  MISS:       1467
cpu0_ITLB RFO       ACCESS:          0  HIT:          0  MISS:          0
cpu0_ITLB PREFETCH  ACCESS:          0  HIT:          0  MISS:          0
cpu0_ITLB WRITEBACK ACCESS:          0  HIT:          0  MISS:          0
cpu0_ITLB TRANSLATION ACCESS:          0  HIT:          0  MISS:          0
cpu0_ITLB PREFETCH  REQUESTED:          0  ISSUED:          0  USEFUL:          0  USELESS:          0
cpu0_ITLB AVERAGE MISS LATENCY: 17.2631 cycles
cpu0_L1I TOTAL     ACCESS:   26421587  HIT:   24793495  MISS:    1628092
cpu0_L1I LOAD      ACCESS:   26421587  HIT:   24793495  MISS:    1628092
cpu0_L1I RFO       ACCESS:          0  HIT:          0  MISS:          0
cpu0_L1I PREFETCH  ACCESS:          0  HIT:          0  MISS:          0
cpu0_L1I WRITEBACK ACCESS:          0  HIT:          0  MISS:          0
cpu0_L1I TRANSLATION ACCESS:          0  HIT:          0  MISS:          0
cpu0_L1I PREFETCH  REQUESTED:          0  ISSUED:          0  USEFUL:          0  USELESS:          0
cpu0_L1I AVERAGE MISS LATENCY: 12.3981 cycles
cpu0_STLB TOTAL     ACCESS:    1067762  HIT:    1060102  MISS:       7660
cpu0_STLB LOAD      ACCESS:     687590  HIT:     684379  MISS:       3211
cpu0_STLB RFO       ACCESS:     380172  HIT:     375723  MISS:       4449
cpu0_STLB PREFETCH  ACCESS:          0  HIT:          0  MISS:          0
cpu0_STLB WRITEBACK ACCESS:          0  HIT:          0  MISS:          0
cpu0_STLB TRANSLATION ACCESS:          0  HIT:          0  MISS:          0
cpu0_STLB PREFETCH  REQUESTED:          0  ISSUED:          0  USEFUL:          0  USELESS:          0
cpu0_STLB AVERAGE MISS LATENCY: 180.103 cycles
cpu0_L1D TOTAL     ACCESS:  147861830  HIT:  145994434  MISS:    1867396
cpu0_L1D LOAD      ACCESS:   75023846  HIT:   73705244  MISS:    1318602
cpu0_L1D RFO       ACCESS:   72831147  HIT:   72283147  MISS:     548000
cpu0_L1D PREFETCH  ACCESS:          0  HIT:          0  MISS:          0
cpu0_L1D WRITEBACK ACCESS:          0  HIT:          0  MISS:          0
cpu0_L1D TRANSLATION ACCESS:       6837  HIT:       6043  MISS:        794
cpu0_L1D PREFETCH  REQUESTED:          0  ISSUED:          0  USEFUL:          0  USELESS:          0
cpu0_L1D AVERAGE MISS LATENCY: 192.956 cycles
cpu0_L2C TOTAL     ACCESS:    6387994  HIT:    5127545  MISS:    1260449
cpu0_L2C LOAD      ACCESS:    2946668  HIT:    2222875  MISS:     723793
cpu0_L2C RFO       ACCESS:     544081  HIT:     146497  MISS:     397584
cpu0_L2C PREFETCH  ACCESS:    2237060  HIT:    2099333  MISS:     137727
cpu0_L2C WRITEBACK ACCESS:     659391  HIT:     658167  MISS:       1224
cpu0_L2C TRANSLATION ACCESS:        794  HIT:        673  MISS:        121
cpu0_L2C PREFETCH  REQUESTED:    7973213  ISSUED:    5701489  USEFUL:     275068  USELESS:       1786
cpu0_L2C AVERAGE MISS LATENCY: 235.175 cycles
LLC TOTAL     ACCESS:    3697096  HIT:    2590776  MISS:    1106320
LLC LOAD      ACCESS:     584692  HIT:     373991  MISS:     210701
LLC RFO       ACCESS:     397568  HIT:       7630  MISS:     389938
LLC PREFETCH  ACCESS:    2229410  HIT:    1725248  MISS:     504162
LLC WRITEBACK ACCESS:     485305  HIT:     483850  MISS:       1455
LLC TRANSLATION ACCESS:        121  HIT:         57  MISS:         64
LLC PREFETCH  REQUESTED:          0  ISSUED:          0  USEFUL:          0  USELESS:          0
LLC AVERAGE MISS LATENCY: 491 cycles

DRAM Statistics
 CHANNEL 0
 RQ ROW_BUFFER_HIT:     121280  ROW_BUFFER_MISS:     983320
 DBUS AVG_CONGESTED_CYCLE:    3.97038
 WQ ROW_BUFFER_HIT:      54137  ROW_BUFFER_MISS:     437810  FULL:          0


CPU 0 Branch Prediction Accuracy: 85.7768% MPKI: 5.31698 Average ROB Occupancy at Mispredict: 107.608
Branch type MPKI
BRANCH_DIRECT_JUMP: 0.000117
BRANCH_INDIRECT: 0.000602
BRANCH_CONDITIONAL: 5.23547
BRANCH_DIRECT_CALL: 0.000215
BRANCH_INDIRECT_CALL: 0.014074
BRANCH_RETURN: 0.0665

***************** Done with 625.x264_s-18B.champsimtrace.xz using spp-dev, on Thu Apr 14 23:33:38 CDT 2022 ******************
