Started running file 644.nab_s-5853B.champsimtrace.xz at time Thu Apr 14 18:33:25 CDT 2022 with prefetcher spp-dev

*** ChampSim Multicore Out-of-Order Simulator ***

Warmup Instructions: 200000000
Simulation Instructions: 1000000000
Number of CPUs: 1
Off-chip DRAM Size: 4 GiB Channels: 1 Width: 64-bit Data Rate: 3200 MT/s

VirtualMemory physical capacity: 8588881920 num_ppages: 2096895
VirtualMemory page size: 4096 log2_page_size: 12

CPU 0 runs /home/faculty/p/pgratz/dpc3_traces/644.nab_s-5853B.champsimtrace.xz
CPU 0 Bimodal branch predictor
Basic BTB sets: 1024 ways: 8 indirect buffer size: 4096 RAS size: 64
SPP-DEV original prefetcher
Heartbeat CPU 0 instructions: 10000002 cycles: 2500092 heartbeat IPC: 3.99985 cumulative IPC: 3.99985 (Simulation time: 0 hr 0 min 33 sec) 
Heartbeat CPU 0 instructions: 20000002 cycles: 5000092 heartbeat IPC: 4 cumulative IPC: 3.99993 (Simulation time: 0 hr 1 min 5 sec) 
Heartbeat CPU 0 instructions: 30000002 cycles: 7500092 heartbeat IPC: 4 cumulative IPC: 3.99995 (Simulation time: 0 hr 1 min 37 sec) 
Heartbeat CPU 0 instructions: 40000002 cycles: 10000092 heartbeat IPC: 4 cumulative IPC: 3.99996 (Simulation time: 0 hr 2 min 8 sec) 
Heartbeat CPU 0 instructions: 50000002 cycles: 12500092 heartbeat IPC: 4 cumulative IPC: 3.99997 (Simulation time: 0 hr 2 min 40 sec) 
Heartbeat CPU 0 instructions: 60000002 cycles: 15000092 heartbeat IPC: 4 cumulative IPC: 3.99998 (Simulation time: 0 hr 3 min 12 sec) 
Heartbeat CPU 0 instructions: 70000002 cycles: 17500092 heartbeat IPC: 4 cumulative IPC: 3.99998 (Simulation time: 0 hr 3 min 44 sec) 
Heartbeat CPU 0 instructions: 80000002 cycles: 20000092 heartbeat IPC: 4 cumulative IPC: 3.99998 (Simulation time: 0 hr 4 min 16 sec) 
Heartbeat CPU 0 instructions: 90000002 cycles: 22500092 heartbeat IPC: 4 cumulative IPC: 3.99998 (Simulation time: 0 hr 4 min 48 sec) 
Heartbeat CPU 0 instructions: 100000002 cycles: 25000092 heartbeat IPC: 4 cumulative IPC: 3.99999 (Simulation time: 0 hr 5 min 20 sec) 
Heartbeat CPU 0 instructions: 110000002 cycles: 27500092 heartbeat IPC: 4 cumulative IPC: 3.99999 (Simulation time: 0 hr 5 min 52 sec) 
Heartbeat CPU 0 instructions: 120000002 cycles: 30000092 heartbeat IPC: 4 cumulative IPC: 3.99999 (Simulation time: 0 hr 6 min 24 sec) 
Heartbeat CPU 0 instructions: 130000002 cycles: 32500092 heartbeat IPC: 4 cumulative IPC: 3.99999 (Simulation time: 0 hr 6 min 56 sec) 
Heartbeat CPU 0 instructions: 140000002 cycles: 35000092 heartbeat IPC: 4 cumulative IPC: 3.99999 (Simulation time: 0 hr 7 min 28 sec) 
Heartbeat CPU 0 instructions: 150000002 cycles: 37500092 heartbeat IPC: 4 cumulative IPC: 3.99999 (Simulation time: 0 hr 8 min 0 sec) 
Heartbeat CPU 0 instructions: 160000002 cycles: 40000092 heartbeat IPC: 4 cumulative IPC: 3.99999 (Simulation time: 0 hr 8 min 32 sec) 
Heartbeat CPU 0 instructions: 170000002 cycles: 42500092 heartbeat IPC: 4 cumulative IPC: 3.99999 (Simulation time: 0 hr 9 min 4 sec) 
Heartbeat CPU 0 instructions: 180000002 cycles: 45000092 heartbeat IPC: 4 cumulative IPC: 3.99999 (Simulation time: 0 hr 9 min 36 sec) 
Heartbeat CPU 0 instructions: 190000002 cycles: 47500092 heartbeat IPC: 4 cumulative IPC: 3.99999 (Simulation time: 0 hr 10 min 8 sec) 
Heartbeat CPU 0 instructions: 200000002 cycles: 50000092 heartbeat IPC: 4 cumulative IPC: 3.99999 (Simulation time: 0 hr 10 min 40 sec) 

Warmup complete CPU 0 instructions: 200000002 cycles: 50000092 (Simulation time: 0 hr 10 min 40 sec) 

Heartbeat CPU 0 instructions: 210000002 cycles: 57841976 heartbeat IPC: 1.2752 cumulative IPC: 1.2752 (Simulation time: 0 hr 11 min 16 sec) 
Heartbeat CPU 0 instructions: 220000003 cycles: 65697586 heartbeat IPC: 1.27298 cumulative IPC: 1.27409 (Simulation time: 0 hr 11 min 52 sec) 
Heartbeat CPU 0 instructions: 230000001 cycles: 73536343 heartbeat IPC: 1.27571 cumulative IPC: 1.27463 (Simulation time: 0 hr 12 min 28 sec) 
Heartbeat CPU 0 instructions: 240000001 cycles: 81391584 heartbeat IPC: 1.27304 cumulative IPC: 1.27423 (Simulation time: 0 hr 13 min 4 sec) 
Heartbeat CPU 0 instructions: 250000003 cycles: 89291680 heartbeat IPC: 1.26581 cumulative IPC: 1.27254 (Simulation time: 0 hr 13 min 40 sec) 
Heartbeat CPU 0 instructions: 260000000 cycles: 97164240 heartbeat IPC: 1.27023 cumulative IPC: 1.27215 (Simulation time: 0 hr 14 min 16 sec) 
Heartbeat CPU 0 instructions: 270000002 cycles: 105008695 heartbeat IPC: 1.27479 cumulative IPC: 1.27253 (Simulation time: 0 hr 14 min 52 sec) 
Heartbeat CPU 0 instructions: 280000002 cycles: 112837126 heartbeat IPC: 1.2774 cumulative IPC: 1.27313 (Simulation time: 0 hr 15 min 28 sec) 
Heartbeat CPU 0 instructions: 290000000 cycles: 120659658 heartbeat IPC: 1.27836 cumulative IPC: 1.27371 (Simulation time: 0 hr 16 min 4 sec) 
Heartbeat CPU 0 instructions: 300000000 cycles: 128469826 heartbeat IPC: 1.28038 cumulative IPC: 1.27438 (Simulation time: 0 hr 16 min 40 sec) 
Heartbeat CPU 0 instructions: 310000004 cycles: 136292355 heartbeat IPC: 1.27836 cumulative IPC: 1.27474 (Simulation time: 0 hr 17 min 15 sec) 
Heartbeat CPU 0 instructions: 320000001 cycles: 144117547 heartbeat IPC: 1.27792 cumulative IPC: 1.275 (Simulation time: 0 hr 17 min 51 sec) 
Heartbeat CPU 0 instructions: 330000002 cycles: 151986168 heartbeat IPC: 1.27087 cumulative IPC: 1.27468 (Simulation time: 0 hr 18 min 26 sec) 
Heartbeat CPU 0 instructions: 340000000 cycles: 159889135 heartbeat IPC: 1.26535 cumulative IPC: 1.27401 (Simulation time: 0 hr 19 min 2 sec) 
Heartbeat CPU 0 instructions: 350000000 cycles: 167785693 heartbeat IPC: 1.26637 cumulative IPC: 1.2735 (Simulation time: 0 hr 19 min 38 sec) 
Heartbeat CPU 0 instructions: 360000003 cycles: 175676839 heartbeat IPC: 1.26724 cumulative IPC: 1.27311 (Simulation time: 0 hr 20 min 15 sec) 
Heartbeat CPU 0 instructions: 370000003 cycles: 183550241 heartbeat IPC: 1.2701 cumulative IPC: 1.27293 (Simulation time: 0 hr 20 min 51 sec) 
Heartbeat CPU 0 instructions: 380000004 cycles: 191441210 heartbeat IPC: 1.26727 cumulative IPC: 1.27261 (Simulation time: 0 hr 21 min 27 sec) 
Heartbeat CPU 0 instructions: 390000004 cycles: 199303622 heartbeat IPC: 1.27187 cumulative IPC: 1.27258 (Simulation time: 0 hr 22 min 3 sec) 
Heartbeat CPU 0 instructions: 400000002 cycles: 207163626 heartbeat IPC: 1.27226 cumulative IPC: 1.27256 (Simulation time: 0 hr 22 min 39 sec) 
Heartbeat CPU 0 instructions: 410000003 cycles: 215011414 heartbeat IPC: 1.27424 cumulative IPC: 1.27264 (Simulation time: 0 hr 23 min 15 sec) 
Heartbeat CPU 0 instructions: 420000000 cycles: 222864924 heartbeat IPC: 1.27332 cumulative IPC: 1.27267 (Simulation time: 0 hr 23 min 51 sec) 
Heartbeat CPU 0 instructions: 430000000 cycles: 230741321 heartbeat IPC: 1.26962 cumulative IPC: 1.27254 (Simulation time: 0 hr 24 min 27 sec) 
Heartbeat CPU 0 instructions: 440000002 cycles: 238658095 heartbeat IPC: 1.26314 cumulative IPC: 1.27214 (Simulation time: 0 hr 25 min 3 sec) 
Heartbeat CPU 0 instructions: 450000004 cycles: 246581620 heartbeat IPC: 1.26206 cumulative IPC: 1.27174 (Simulation time: 0 hr 25 min 39 sec) 
Heartbeat CPU 0 instructions: 460000003 cycles: 254515201 heartbeat IPC: 1.26046 cumulative IPC: 1.2713 (Simulation time: 0 hr 26 min 16 sec) 
Heartbeat CPU 0 instructions: 470000003 cycles: 262506281 heartbeat IPC: 1.2514 cumulative IPC: 1.27055 (Simulation time: 0 hr 26 min 52 sec) 
Heartbeat CPU 0 instructions: 480000001 cycles: 270490484 heartbeat IPC: 1.25247 cumulative IPC: 1.2699 (Simulation time: 0 hr 27 min 28 sec) 
Heartbeat CPU 0 instructions: 490000003 cycles: 278467603 heartbeat IPC: 1.25359 cumulative IPC: 1.26933 (Simulation time: 0 hr 28 min 5 sec) 
Heartbeat CPU 0 instructions: 500000000 cycles: 286493288 heartbeat IPC: 1.246 cumulative IPC: 1.26854 (Simulation time: 0 hr 28 min 41 sec) 
Heartbeat CPU 0 instructions: 510000000 cycles: 294530847 heartbeat IPC: 1.24416 cumulative IPC: 1.26773 (Simulation time: 0 hr 29 min 17 sec) 
Heartbeat CPU 0 instructions: 520000000 cycles: 302574944 heartbeat IPC: 1.24315 cumulative IPC: 1.26695 (Simulation time: 0 hr 29 min 54 sec) 
Heartbeat CPU 0 instructions: 530000003 cycles: 310590641 heartbeat IPC: 1.24755 cumulative IPC: 1.26635 (Simulation time: 0 hr 30 min 30 sec) 
Heartbeat CPU 0 instructions: 540000003 cycles: 318539096 heartbeat IPC: 1.25811 cumulative IPC: 1.26611 (Simulation time: 0 hr 31 min 6 sec) 
Heartbeat CPU 0 instructions: 550000002 cycles: 326484373 heartbeat IPC: 1.25861 cumulative IPC: 1.26589 (Simulation time: 0 hr 31 min 42 sec) 
Heartbeat CPU 0 instructions: 560000001 cycles: 334393378 heartbeat IPC: 1.26438 cumulative IPC: 1.26585 (Simulation time: 0 hr 32 min 18 sec) 
Heartbeat CPU 0 instructions: 570000002 cycles: 342330477 heartbeat IPC: 1.25991 cumulative IPC: 1.26569 (Simulation time: 0 hr 32 min 54 sec) 
Heartbeat CPU 0 instructions: 580000000 cycles: 350231683 heartbeat IPC: 1.26563 cumulative IPC: 1.26569 (Simulation time: 0 hr 33 min 30 sec) 
Heartbeat CPU 0 instructions: 590000001 cycles: 358202935 heartbeat IPC: 1.25451 cumulative IPC: 1.2654 (Simulation time: 0 hr 34 min 6 sec) 
Heartbeat CPU 0 instructions: 600000003 cycles: 366117239 heartbeat IPC: 1.26354 cumulative IPC: 1.26535 (Simulation time: 0 hr 34 min 43 sec) 
Heartbeat CPU 0 instructions: 610000001 cycles: 374059573 heartbeat IPC: 1.25908 cumulative IPC: 1.2652 (Simulation time: 0 hr 35 min 19 sec) 
Heartbeat CPU 0 instructions: 620000000 cycles: 381973181 heartbeat IPC: 1.26365 cumulative IPC: 1.26516 (Simulation time: 0 hr 35 min 55 sec) 
Heartbeat CPU 0 instructions: 630000002 cycles: 389935177 heartbeat IPC: 1.25597 cumulative IPC: 1.26495 (Simulation time: 0 hr 36 min 31 sec) 
Heartbeat CPU 0 instructions: 640000000 cycles: 397886361 heartbeat IPC: 1.25767 cumulative IPC: 1.26478 (Simulation time: 0 hr 37 min 7 sec) 
Heartbeat CPU 0 instructions: 650000002 cycles: 405840879 heartbeat IPC: 1.25715 cumulative IPC: 1.26461 (Simulation time: 0 hr 37 min 43 sec) 
Heartbeat CPU 0 instructions: 660000000 cycles: 413830568 heartbeat IPC: 1.25161 cumulative IPC: 1.26433 (Simulation time: 0 hr 38 min 20 sec) 
Heartbeat CPU 0 instructions: 670000004 cycles: 421864105 heartbeat IPC: 1.24478 cumulative IPC: 1.2639 (Simulation time: 0 hr 38 min 56 sec) 
Heartbeat CPU 0 instructions: 680000000 cycles: 429887403 heartbeat IPC: 1.24637 cumulative IPC: 1.26353 (Simulation time: 0 hr 39 min 33 sec) 
Heartbeat CPU 0 instructions: 690000001 cycles: 437874720 heartbeat IPC: 1.25198 cumulative IPC: 1.26329 (Simulation time: 0 hr 40 min 9 sec) 
Heartbeat CPU 0 instructions: 700000004 cycles: 445843175 heartbeat IPC: 1.25495 cumulative IPC: 1.26313 (Simulation time: 0 hr 40 min 45 sec) 
Heartbeat CPU 0 instructions: 710000001 cycles: 453805519 heartbeat IPC: 1.25591 cumulative IPC: 1.26298 (Simulation time: 0 hr 41 min 21 sec) 
Heartbeat CPU 0 instructions: 720000003 cycles: 461894530 heartbeat IPC: 1.23625 cumulative IPC: 1.26246 (Simulation time: 0 hr 41 min 58 sec) 
Heartbeat CPU 0 instructions: 730000001 cycles: 469958108 heartbeat IPC: 1.24014 cumulative IPC: 1.26203 (Simulation time: 0 hr 42 min 34 sec) 
Heartbeat CPU 0 instructions: 740000002 cycles: 477930786 heartbeat IPC: 1.25428 cumulative IPC: 1.26189 (Simulation time: 0 hr 43 min 10 sec) 
Heartbeat CPU 0 instructions: 750000003 cycles: 485939284 heartbeat IPC: 1.24867 cumulative IPC: 1.26164 (Simulation time: 0 hr 43 min 47 sec) 
Heartbeat CPU 0 instructions: 760000001 cycles: 493883117 heartbeat IPC: 1.25884 cumulative IPC: 1.26159 (Simulation time: 0 hr 44 min 23 sec) 
Heartbeat CPU 0 instructions: 770000001 cycles: 501820668 heartbeat IPC: 1.25983 cumulative IPC: 1.26156 (Simulation time: 0 hr 44 min 59 sec) 
Heartbeat CPU 0 instructions: 780000002 cycles: 509767838 heartbeat IPC: 1.25831 cumulative IPC: 1.26151 (Simulation time: 0 hr 45 min 35 sec) 
Heartbeat CPU 0 instructions: 790000001 cycles: 517634671 heartbeat IPC: 1.27116 cumulative IPC: 1.26167 (Simulation time: 0 hr 46 min 11 sec) 
Heartbeat CPU 0 instructions: 800000000 cycles: 525521352 heartbeat IPC: 1.26796 cumulative IPC: 1.26177 (Simulation time: 0 hr 46 min 47 sec) 
Heartbeat CPU 0 instructions: 810000004 cycles: 533410201 heartbeat IPC: 1.26761 cumulative IPC: 1.26187 (Simulation time: 0 hr 47 min 23 sec) 
Heartbeat CPU 0 instructions: 820000000 cycles: 541256953 heartbeat IPC: 1.27441 cumulative IPC: 1.26207 (Simulation time: 0 hr 47 min 59 sec) 
Heartbeat CPU 0 instructions: 830000001 cycles: 549104077 heartbeat IPC: 1.27435 cumulative IPC: 1.26226 (Simulation time: 0 hr 48 min 35 sec) 
Heartbeat CPU 0 instructions: 840000000 cycles: 556952539 heartbeat IPC: 1.27413 cumulative IPC: 1.26245 (Simulation time: 0 hr 49 min 11 sec) 
Heartbeat CPU 0 instructions: 850000003 cycles: 564814898 heartbeat IPC: 1.27188 cumulative IPC: 1.26259 (Simulation time: 0 hr 49 min 47 sec) 
Heartbeat CPU 0 instructions: 860000004 cycles: 572691475 heartbeat IPC: 1.26959 cumulative IPC: 1.2627 (Simulation time: 0 hr 50 min 23 sec) 
Heartbeat CPU 0 instructions: 870000004 cycles: 580548408 heartbeat IPC: 1.27276 cumulative IPC: 1.26284 (Simulation time: 0 hr 50 min 59 sec) 
Heartbeat CPU 0 instructions: 880000000 cycles: 588432876 heartbeat IPC: 1.26832 cumulative IPC: 1.26292 (Simulation time: 0 hr 51 min 35 sec) 
Heartbeat CPU 0 instructions: 890000000 cycles: 596288554 heartbeat IPC: 1.27296 cumulative IPC: 1.26307 (Simulation time: 0 hr 52 min 11 sec) 
Heartbeat CPU 0 instructions: 900000000 cycles: 604125915 heartbeat IPC: 1.27594 cumulative IPC: 1.26325 (Simulation time: 0 hr 52 min 47 sec) 
Heartbeat CPU 0 instructions: 910000001 cycles: 611940401 heartbeat IPC: 1.27967 cumulative IPC: 1.26348 (Simulation time: 0 hr 53 min 22 sec) 
Heartbeat CPU 0 instructions: 920000004 cycles: 619786495 heartbeat IPC: 1.27452 cumulative IPC: 1.26363 (Simulation time: 0 hr 53 min 58 sec) 
Heartbeat CPU 0 instructions: 930000000 cycles: 627720782 heartbeat IPC: 1.26035 cumulative IPC: 1.26359 (Simulation time: 0 hr 54 min 34 sec) 
Heartbeat CPU 0 instructions: 940000000 cycles: 635734581 heartbeat IPC: 1.24785 cumulative IPC: 1.26337 (Simulation time: 0 hr 55 min 10 sec) 
Heartbeat CPU 0 instructions: 950000000 cycles: 643738346 heartbeat IPC: 1.24941 cumulative IPC: 1.26318 (Simulation time: 0 hr 55 min 46 sec) 
Heartbeat CPU 0 instructions: 960000002 cycles: 651870086 heartbeat IPC: 1.22975 cumulative IPC: 1.26273 (Simulation time: 0 hr 56 min 23 sec) 
Heartbeat CPU 0 instructions: 970000000 cycles: 659987080 heartbeat IPC: 1.23198 cumulative IPC: 1.26232 (Simulation time: 0 hr 57 min 0 sec) 
Heartbeat CPU 0 instructions: 980000000 cycles: 668073834 heartbeat IPC: 1.23659 cumulative IPC: 1.26199 (Simulation time: 0 hr 57 min 36 sec) 
Heartbeat CPU 0 instructions: 990000004 cycles: 676148296 heartbeat IPC: 1.23847 cumulative IPC: 1.26168 (Simulation time: 0 hr 58 min 12 sec) 
Heartbeat CPU 0 instructions: 1000000001 cycles: 684218947 heartbeat IPC: 1.23906 cumulative IPC: 1.26139 (Simulation time: 0 hr 58 min 49 sec) 
Heartbeat CPU 0 instructions: 1010000002 cycles: 692391598 heartbeat IPC: 1.22359 cumulative IPC: 1.26091 (Simulation time: 0 hr 59 min 26 sec) 
Heartbeat CPU 0 instructions: 1020000002 cycles: 700646017 heartbeat IPC: 1.21147 cumulative IPC: 1.26029 (Simulation time: 1 hr 0 min 2 sec) 
Heartbeat CPU 0 instructions: 1030000001 cycles: 708931891 heartbeat IPC: 1.20687 cumulative IPC: 1.25961 (Simulation time: 1 hr 0 min 39 sec) 
Heartbeat CPU 0 instructions: 1040000002 cycles: 717254705 heartbeat IPC: 1.20152 cumulative IPC: 1.25889 (Simulation time: 1 hr 1 min 16 sec) 
Heartbeat CPU 0 instructions: 1050000001 cycles: 725646358 heartbeat IPC: 1.19166 cumulative IPC: 1.25805 (Simulation time: 1 hr 1 min 53 sec) 
Heartbeat CPU 0 instructions: 1060000002 cycles: 734018203 heartbeat IPC: 1.19448 cumulative IPC: 1.25728 (Simulation time: 1 hr 2 min 30 sec) 
Heartbeat CPU 0 instructions: 1070000000 cycles: 742395583 heartbeat IPC: 1.19369 cumulative IPC: 1.25651 (Simulation time: 1 hr 3 min 7 sec) 
Heartbeat CPU 0 instructions: 1080000000 cycles: 750763127 heartbeat IPC: 1.19509 cumulative IPC: 1.25577 (Simulation time: 1 hr 3 min 44 sec) 
Heartbeat CPU 0 instructions: 1090000000 cycles: 759183369 heartbeat IPC: 1.18761 cumulative IPC: 1.25496 (Simulation time: 1 hr 4 min 21 sec) 
Heartbeat CPU 0 instructions: 1100000000 cycles: 767582288 heartbeat IPC: 1.19063 cumulative IPC: 1.25421 (Simulation time: 1 hr 4 min 58 sec) 
Heartbeat CPU 0 instructions: 1110000002 cycles: 775919513 heartbeat IPC: 1.19944 cumulative IPC: 1.25358 (Simulation time: 1 hr 5 min 35 sec) 
Heartbeat CPU 0 instructions: 1120000003 cycles: 784182660 heartbeat IPC: 1.21019 cumulative IPC: 1.25309 (Simulation time: 1 hr 6 min 12 sec) 
Heartbeat CPU 0 instructions: 1130000002 cycles: 792144448 heartbeat IPC: 1.256 cumulative IPC: 1.25313 (Simulation time: 1 hr 6 min 49 sec) 
Heartbeat CPU 0 instructions: 1140000000 cycles: 800085049 heartbeat IPC: 1.25935 cumulative IPC: 1.25319 (Simulation time: 1 hr 7 min 25 sec) 
Heartbeat CPU 0 instructions: 1150000001 cycles: 808041934 heartbeat IPC: 1.25677 cumulative IPC: 1.25323 (Simulation time: 1 hr 8 min 1 sec) 
Heartbeat CPU 0 instructions: 1160000000 cycles: 815984083 heartbeat IPC: 1.2591 cumulative IPC: 1.25329 (Simulation time: 1 hr 8 min 37 sec) 
Heartbeat CPU 0 instructions: 1170000001 cycles: 824043032 heartbeat IPC: 1.24086 cumulative IPC: 1.25316 (Simulation time: 1 hr 9 min 12 sec) 
Heartbeat CPU 0 instructions: 1180000002 cycles: 832229436 heartbeat IPC: 1.22154 cumulative IPC: 1.25283 (Simulation time: 1 hr 9 min 49 sec) 
Heartbeat CPU 0 instructions: 1190000001 cycles: 840304239 heartbeat IPC: 1.23842 cumulative IPC: 1.25268 (Simulation time: 1 hr 10 min 26 sec) 
Heartbeat CPU 0 instructions: 1200000001 cycles: 848392304 heartbeat IPC: 1.23639 cumulative IPC: 1.25252 (Simulation time: 1 hr 11 min 2 sec) 
Finished CPU 0 instructions: 1000000004 cycles: 798392213 cumulative IPC: 1.25252 (Simulation time: 1 hr 11 min 2 sec) 

ChampSim completed all CPUs

Region of Interest Statistics

CPU 0 cumulative IPC: 1.25252 instructions: 1000000004 cycles: 798392213
cpu0_DTLB TOTAL     ACCESS:  227787257  HIT:  225564423  MISS:    2222834
cpu0_DTLB LOAD      ACCESS:  175946813  HIT:  173740441  MISS:    2206372
cpu0_DTLB RFO       ACCESS:   51840444  HIT:   51823982  MISS:      16462
cpu0_DTLB PREFETCH  ACCESS:          0  HIT:          0  MISS:          0
cpu0_DTLB WRITEBACK ACCESS:          0  HIT:          0  MISS:          0
cpu0_DTLB TRANSLATION ACCESS:          0  HIT:          0  MISS:          0
cpu0_DTLB PREFETCH  REQUESTED:          0  ISSUED:          0  USEFUL:          0  USELESS:          0
cpu0_DTLB AVERAGE MISS LATENCY: 11.7372 cycles
cpu0_ITLB TOTAL     ACCESS:  107763493  HIT:  107763493  MISS:          0
cpu0_ITLB LOAD      ACCESS:  107763493  HIT:  107763493  MISS:          0
cpu0_ITLB RFO       ACCESS:          0  HIT:          0  MISS:          0
cpu0_ITLB PREFETCH  ACCESS:          0  HIT:          0  MISS:          0
cpu0_ITLB WRITEBACK ACCESS:          0  HIT:          0  MISS:          0
cpu0_ITLB TRANSLATION ACCESS:          0  HIT:          0  MISS:          0
cpu0_ITLB PREFETCH  REQUESTED:          0  ISSUED:          0  USEFUL:          0  USELESS:          0
cpu0_ITLB AVERAGE MISS LATENCY: -nan cycles
cpu0_L1I TOTAL     ACCESS:      21977  HIT:      21975  MISS:          2
cpu0_L1I LOAD      ACCESS:      21977  HIT:      21975  MISS:          2
cpu0_L1I RFO       ACCESS:          0  HIT:          0  MISS:          0
cpu0_L1I PREFETCH  ACCESS:          0  HIT:          0  MISS:          0
cpu0_L1I WRITEBACK ACCESS:          0  HIT:          0  MISS:          0
cpu0_L1I TRANSLATION ACCESS:          0  HIT:          0  MISS:          0
cpu0_L1I PREFETCH  REQUESTED:          0  ISSUED:          0  USEFUL:          0  USELESS:          0
cpu0_L1I AVERAGE MISS LATENCY: 194.5 cycles
cpu0_STLB TOTAL     ACCESS:    2222834  HIT:    2215195  MISS:       7639
cpu0_STLB LOAD      ACCESS:    2206372  HIT:    2198733  MISS:       7639
cpu0_STLB RFO       ACCESS:      16462  HIT:      16462  MISS:          0
cpu0_STLB PREFETCH  ACCESS:          0  HIT:          0  MISS:          0
cpu0_STLB WRITEBACK ACCESS:          0  HIT:          0  MISS:          0
cpu0_STLB TRANSLATION ACCESS:          0  HIT:          0  MISS:          0
cpu0_STLB PREFETCH  REQUESTED:          0  ISSUED:          0  USEFUL:          0  USELESS:          0
cpu0_STLB AVERAGE MISS LATENCY: 214.282 cycles
cpu0_L1D TOTAL     ACCESS:  321247605  HIT:  317330566  MISS:    3917039
cpu0_L1D LOAD      ACCESS:  210621440  HIT:  206714232  MISS:    3907208
cpu0_L1D RFO       ACCESS:  110618531  HIT:  110612297  MISS:       6234
cpu0_L1D PREFETCH  ACCESS:          0  HIT:          0  MISS:          0
cpu0_L1D WRITEBACK ACCESS:          0  HIT:          0  MISS:          0
cpu0_L1D TRANSLATION ACCESS:       7634  HIT:       4037  MISS:       3597
cpu0_L1D PREFETCH  REQUESTED:          0  ISSUED:          0  USEFUL:          0  USELESS:          0
cpu0_L1D AVERAGE MISS LATENCY: 12.2115 cycles
cpu0_L2C TOTAL     ACCESS:   16327052  HIT:   16125289  MISS:     201763
cpu0_L2C LOAD      ACCESS:    3907200  HIT:    3787943  MISS:     119257
cpu0_L2C RFO       ACCESS:       6234  HIT:       5740  MISS:        494
cpu0_L2C PREFETCH  ACCESS:   11070030  HIT:   10988144  MISS:      81886
cpu0_L2C WRITEBACK ACCESS:    1339991  HIT:    1339972  MISS:         19
cpu0_L2C TRANSLATION ACCESS:       3597  HIT:       3490  MISS:        107
cpu0_L2C PREFETCH  REQUESTED:   12664551  ISSUED:   12537130  USEFUL:      79920  USELESS:       1902
cpu0_L2C AVERAGE MISS LATENCY: 33.1995 cycles
LLC TOTAL     ACCESS:    1674683  HIT:    1448988  MISS:     225695
LLC LOAD      ACCESS:     119256  HIT:     105712  MISS:      13544
LLC RFO       ACCESS:        494  HIT:        456  MISS:         38
LLC PREFETCH  ACCESS:    1547874  HIT:    1338375  MISS:     209499
LLC WRITEBACK ACCESS:       6952  HIT:       4390  MISS:       2562
LLC TRANSLATION ACCESS:        107  HIT:         55  MISS:         52
LLC PREFETCH  REQUESTED:          0  ISSUED:          0  USEFUL:          0  USELESS:          0
LLC AVERAGE MISS LATENCY: 109.42 cycles

DRAM Statistics
 CHANNEL 0
 RQ ROW_BUFFER_HIT:     140267  ROW_BUFFER_MISS:      82866
 DBUS AVG_CONGESTED_CYCLE:    3.96615
 WQ ROW_BUFFER_HIT:         87  ROW_BUFFER_MISS:       4731  FULL:          0


CPU 0 Branch Prediction Accuracy: 94.2299% MPKI: 5.58664 Average ROB Occupancy at Mispredict: 134.564
Branch type MPKI
BRANCH_DIRECT_JUMP: 2e-06
BRANCH_INDIRECT: 0
BRANCH_CONDITIONAL: 5.58664
BRANCH_DIRECT_CALL: 1e-06
BRANCH_INDIRECT_CALL: 0
BRANCH_RETURN: 1e-06

***************** Done with 644.nab_s-5853B.champsimtrace.xz using spp-dev, on Thu Apr 14 19:44:27 CDT 2022 ******************
