Started running file 631.deepsjeng_s-928B.champsimtrace.xz at time Thu Apr 14 16:46:13 CDT 2022 with prefetcher spp-dev

*** ChampSim Multicore Out-of-Order Simulator ***

Warmup Instructions: 200000000
Simulation Instructions: 1000000000
Number of CPUs: 1
Off-chip DRAM Size: 4 GiB Channels: 1 Width: 64-bit Data Rate: 3200 MT/s

VirtualMemory physical capacity: 8588881920 num_ppages: 2096895
VirtualMemory page size: 4096 log2_page_size: 12

CPU 0 runs /home/faculty/p/pgratz/dpc3_traces/631.deepsjeng_s-928B.champsimtrace.xz
CPU 0 Bimodal branch predictor
Basic BTB sets: 1024 ways: 8 indirect buffer size: 4096 RAS size: 64
SPP-DEV original prefetcher
Heartbeat CPU 0 instructions: 10000002 cycles: 2500176 heartbeat IPC: 3.99972 cumulative IPC: 3.99972 (Simulation time: 0 hr 0 min 31 sec) 
Heartbeat CPU 0 instructions: 20000002 cycles: 5000176 heartbeat IPC: 4 cumulative IPC: 3.99986 (Simulation time: 0 hr 1 min 3 sec) 
Heartbeat CPU 0 instructions: 30000002 cycles: 7500176 heartbeat IPC: 4 cumulative IPC: 3.99991 (Simulation time: 0 hr 1 min 35 sec) 
Heartbeat CPU 0 instructions: 40000002 cycles: 10000176 heartbeat IPC: 4 cumulative IPC: 3.99993 (Simulation time: 0 hr 2 min 6 sec) 
Heartbeat CPU 0 instructions: 50000002 cycles: 12500176 heartbeat IPC: 4 cumulative IPC: 3.99994 (Simulation time: 0 hr 2 min 38 sec) 
Heartbeat CPU 0 instructions: 60000002 cycles: 15000176 heartbeat IPC: 4 cumulative IPC: 3.99995 (Simulation time: 0 hr 3 min 9 sec) 
Heartbeat CPU 0 instructions: 70000002 cycles: 17500176 heartbeat IPC: 4 cumulative IPC: 3.99996 (Simulation time: 0 hr 3 min 40 sec) 
Heartbeat CPU 0 instructions: 80000002 cycles: 20000176 heartbeat IPC: 4 cumulative IPC: 3.99996 (Simulation time: 0 hr 4 min 12 sec) 
Heartbeat CPU 0 instructions: 90000002 cycles: 22500176 heartbeat IPC: 4 cumulative IPC: 3.99997 (Simulation time: 0 hr 4 min 43 sec) 
Heartbeat CPU 0 instructions: 100000002 cycles: 25000183 heartbeat IPC: 3.99999 cumulative IPC: 3.99997 (Simulation time: 0 hr 5 min 15 sec) 
Heartbeat CPU 0 instructions: 110000002 cycles: 27500183 heartbeat IPC: 4 cumulative IPC: 3.99997 (Simulation time: 0 hr 5 min 47 sec) 
Heartbeat CPU 0 instructions: 120000002 cycles: 30000183 heartbeat IPC: 4 cumulative IPC: 3.99998 (Simulation time: 0 hr 6 min 19 sec) 
Heartbeat CPU 0 instructions: 130000002 cycles: 32500183 heartbeat IPC: 4 cumulative IPC: 3.99998 (Simulation time: 0 hr 6 min 50 sec) 
Heartbeat CPU 0 instructions: 140000002 cycles: 35000183 heartbeat IPC: 4 cumulative IPC: 3.99998 (Simulation time: 0 hr 7 min 22 sec) 
Heartbeat CPU 0 instructions: 150000002 cycles: 37500183 heartbeat IPC: 4 cumulative IPC: 3.99998 (Simulation time: 0 hr 7 min 53 sec) 
Heartbeat CPU 0 instructions: 160000002 cycles: 40000183 heartbeat IPC: 4 cumulative IPC: 3.99998 (Simulation time: 0 hr 8 min 25 sec) 
Heartbeat CPU 0 instructions: 170000002 cycles: 42500183 heartbeat IPC: 4 cumulative IPC: 3.99998 (Simulation time: 0 hr 8 min 57 sec) 
Heartbeat CPU 0 instructions: 180000000 cycles: 45000184 heartbeat IPC: 4 cumulative IPC: 3.99998 (Simulation time: 0 hr 9 min 28 sec) 
Heartbeat CPU 0 instructions: 190000003 cycles: 47500200 heartbeat IPC: 3.99998 cumulative IPC: 3.99998 (Simulation time: 0 hr 10 min 0 sec) 
Heartbeat CPU 0 instructions: 200000003 cycles: 50000200 heartbeat IPC: 4 cumulative IPC: 3.99998 (Simulation time: 0 hr 10 min 32 sec) 

Warmup complete CPU 0 instructions: 200000003 cycles: 50000200 (Simulation time: 0 hr 10 min 32 sec) 

Heartbeat CPU 0 instructions: 210000000 cycles: 57891478 heartbeat IPC: 1.26722 cumulative IPC: 1.26722 (Simulation time: 0 hr 11 min 6 sec) 
Heartbeat CPU 0 instructions: 220000003 cycles: 65997332 heartbeat IPC: 1.23368 cumulative IPC: 1.25022 (Simulation time: 0 hr 11 min 40 sec) 
Heartbeat CPU 0 instructions: 230000001 cycles: 74011680 heartbeat IPC: 1.24776 cumulative IPC: 1.2494 (Simulation time: 0 hr 12 min 14 sec) 
Heartbeat CPU 0 instructions: 240000003 cycles: 81979955 heartbeat IPC: 1.25498 cumulative IPC: 1.25079 (Simulation time: 0 hr 12 min 48 sec) 
Heartbeat CPU 0 instructions: 250000000 cycles: 89873241 heartbeat IPC: 1.2669 cumulative IPC: 1.25398 (Simulation time: 0 hr 13 min 22 sec) 
Heartbeat CPU 0 instructions: 260000000 cycles: 97829674 heartbeat IPC: 1.25684 cumulative IPC: 1.25446 (Simulation time: 0 hr 13 min 56 sec) 
Heartbeat CPU 0 instructions: 270000002 cycles: 105766422 heartbeat IPC: 1.25996 cumulative IPC: 1.25524 (Simulation time: 0 hr 14 min 30 sec) 
Heartbeat CPU 0 instructions: 280000001 cycles: 113783375 heartbeat IPC: 1.24736 cumulative IPC: 1.25425 (Simulation time: 0 hr 15 min 4 sec) 
Heartbeat CPU 0 instructions: 290000000 cycles: 121660675 heartbeat IPC: 1.26947 cumulative IPC: 1.25592 (Simulation time: 0 hr 15 min 39 sec) 
Heartbeat CPU 0 instructions: 300000002 cycles: 129732325 heartbeat IPC: 1.2389 cumulative IPC: 1.2542 (Simulation time: 0 hr 16 min 12 sec) 
Heartbeat CPU 0 instructions: 310000000 cycles: 137846434 heartbeat IPC: 1.23242 cumulative IPC: 1.25219 (Simulation time: 0 hr 16 min 46 sec) 
Heartbeat CPU 0 instructions: 320000000 cycles: 145883732 heartbeat IPC: 1.2442 cumulative IPC: 1.25152 (Simulation time: 0 hr 17 min 20 sec) 
Heartbeat CPU 0 instructions: 330000000 cycles: 154034390 heartbeat IPC: 1.22689 cumulative IPC: 1.24959 (Simulation time: 0 hr 17 min 54 sec) 
Heartbeat CPU 0 instructions: 340000004 cycles: 162048818 heartbeat IPC: 1.24775 cumulative IPC: 1.24946 (Simulation time: 0 hr 18 min 28 sec) 
Heartbeat CPU 0 instructions: 350000002 cycles: 170003126 heartbeat IPC: 1.25718 cumulative IPC: 1.24997 (Simulation time: 0 hr 19 min 2 sec) 
Heartbeat CPU 0 instructions: 360000000 cycles: 177842072 heartbeat IPC: 1.27568 cumulative IPC: 1.25155 (Simulation time: 0 hr 19 min 36 sec) 
Heartbeat CPU 0 instructions: 370000002 cycles: 185652802 heartbeat IPC: 1.28029 cumulative IPC: 1.2532 (Simulation time: 0 hr 20 min 10 sec) 
Heartbeat CPU 0 instructions: 380000000 cycles: 193560163 heartbeat IPC: 1.26464 cumulative IPC: 1.25383 (Simulation time: 0 hr 20 min 43 sec) 
Heartbeat CPU 0 instructions: 390000000 cycles: 201608603 heartbeat IPC: 1.24248 cumulative IPC: 1.25323 (Simulation time: 0 hr 21 min 17 sec) 
Heartbeat CPU 0 instructions: 400000001 cycles: 209634924 heartbeat IPC: 1.2459 cumulative IPC: 1.25286 (Simulation time: 0 hr 21 min 51 sec) 
Heartbeat CPU 0 instructions: 410000003 cycles: 217898641 heartbeat IPC: 1.21011 cumulative IPC: 1.25076 (Simulation time: 0 hr 22 min 25 sec) 
Heartbeat CPU 0 instructions: 420000000 cycles: 225989872 heartbeat IPC: 1.23591 cumulative IPC: 1.25007 (Simulation time: 0 hr 22 min 59 sec) 
Heartbeat CPU 0 instructions: 430000004 cycles: 234052345 heartbeat IPC: 1.24031 cumulative IPC: 1.24965 (Simulation time: 0 hr 23 min 33 sec) 
Heartbeat CPU 0 instructions: 440000002 cycles: 242098090 heartbeat IPC: 1.24289 cumulative IPC: 1.24936 (Simulation time: 0 hr 24 min 6 sec) 
Heartbeat CPU 0 instructions: 450000003 cycles: 250145729 heartbeat IPC: 1.2426 cumulative IPC: 1.24909 (Simulation time: 0 hr 24 min 40 sec) 
Heartbeat CPU 0 instructions: 460000001 cycles: 258238894 heartbeat IPC: 1.23561 cumulative IPC: 1.24857 (Simulation time: 0 hr 25 min 14 sec) 
Heartbeat CPU 0 instructions: 470000000 cycles: 266222060 heartbeat IPC: 1.25264 cumulative IPC: 1.24872 (Simulation time: 0 hr 25 min 47 sec) 
Heartbeat CPU 0 instructions: 480000002 cycles: 274282271 heartbeat IPC: 1.24066 cumulative IPC: 1.24843 (Simulation time: 0 hr 26 min 21 sec) 
Heartbeat CPU 0 instructions: 490000001 cycles: 282135782 heartbeat IPC: 1.27332 cumulative IPC: 1.24927 (Simulation time: 0 hr 26 min 55 sec) 
Heartbeat CPU 0 instructions: 500000002 cycles: 290047910 heartbeat IPC: 1.26388 cumulative IPC: 1.24975 (Simulation time: 0 hr 27 min 29 sec) 
Heartbeat CPU 0 instructions: 510000004 cycles: 297893805 heartbeat IPC: 1.27455 cumulative IPC: 1.25054 (Simulation time: 0 hr 28 min 3 sec) 
Heartbeat CPU 0 instructions: 520000001 cycles: 305763658 heartbeat IPC: 1.27067 cumulative IPC: 1.25116 (Simulation time: 0 hr 28 min 37 sec) 
Heartbeat CPU 0 instructions: 530000003 cycles: 313638480 heartbeat IPC: 1.26987 cumulative IPC: 1.25172 (Simulation time: 0 hr 29 min 10 sec) 
Heartbeat CPU 0 instructions: 540000000 cycles: 321605957 heartbeat IPC: 1.2551 cumulative IPC: 1.25181 (Simulation time: 0 hr 29 min 44 sec) 
Heartbeat CPU 0 instructions: 550000001 cycles: 329490405 heartbeat IPC: 1.26832 cumulative IPC: 1.25228 (Simulation time: 0 hr 30 min 18 sec) 
Heartbeat CPU 0 instructions: 560000003 cycles: 337327343 heartbeat IPC: 1.27601 cumulative IPC: 1.25293 (Simulation time: 0 hr 30 min 52 sec) 
Heartbeat CPU 0 instructions: 570000002 cycles: 344972753 heartbeat IPC: 1.30797 cumulative IPC: 1.25435 (Simulation time: 0 hr 31 min 25 sec) 
Heartbeat CPU 0 instructions: 580000000 cycles: 352702154 heartbeat IPC: 1.29376 cumulative IPC: 1.25536 (Simulation time: 0 hr 32 min 0 sec) 
Heartbeat CPU 0 instructions: 590000000 cycles: 360674068 heartbeat IPC: 1.2544 cumulative IPC: 1.25534 (Simulation time: 0 hr 32 min 34 sec) 
Heartbeat CPU 0 instructions: 600000000 cycles: 368655148 heartbeat IPC: 1.25296 cumulative IPC: 1.25528 (Simulation time: 0 hr 33 min 8 sec) 
Heartbeat CPU 0 instructions: 610000002 cycles: 376646587 heartbeat IPC: 1.25134 cumulative IPC: 1.25518 (Simulation time: 0 hr 33 min 41 sec) 
Heartbeat CPU 0 instructions: 620000003 cycles: 384579267 heartbeat IPC: 1.26061 cumulative IPC: 1.25531 (Simulation time: 0 hr 34 min 15 sec) 
Heartbeat CPU 0 instructions: 630000000 cycles: 392544302 heartbeat IPC: 1.25549 cumulative IPC: 1.25531 (Simulation time: 0 hr 34 min 48 sec) 
Heartbeat CPU 0 instructions: 640000000 cycles: 400440246 heartbeat IPC: 1.26647 cumulative IPC: 1.25556 (Simulation time: 0 hr 35 min 22 sec) 
Heartbeat CPU 0 instructions: 650000000 cycles: 408351313 heartbeat IPC: 1.26405 cumulative IPC: 1.25575 (Simulation time: 0 hr 35 min 56 sec) 
Heartbeat CPU 0 instructions: 660000002 cycles: 416114146 heartbeat IPC: 1.28819 cumulative IPC: 1.25644 (Simulation time: 0 hr 36 min 30 sec) 
Heartbeat CPU 0 instructions: 670000001 cycles: 423782820 heartbeat IPC: 1.30401 cumulative IPC: 1.25742 (Simulation time: 0 hr 37 min 4 sec) 
Heartbeat CPU 0 instructions: 680000004 cycles: 431593251 heartbeat IPC: 1.28034 cumulative IPC: 1.25788 (Simulation time: 0 hr 37 min 37 sec) 
Heartbeat CPU 0 instructions: 690000003 cycles: 439613614 heartbeat IPC: 1.24683 cumulative IPC: 1.25766 (Simulation time: 0 hr 38 min 11 sec) 
Heartbeat CPU 0 instructions: 700000004 cycles: 447657153 heartbeat IPC: 1.24323 cumulative IPC: 1.25737 (Simulation time: 0 hr 38 min 45 sec) 
Heartbeat CPU 0 instructions: 710000004 cycles: 455516500 heartbeat IPC: 1.27237 cumulative IPC: 1.25766 (Simulation time: 0 hr 39 min 18 sec) 
Heartbeat CPU 0 instructions: 720000001 cycles: 463302276 heartbeat IPC: 1.28439 cumulative IPC: 1.25816 (Simulation time: 0 hr 39 min 52 sec) 
Heartbeat CPU 0 instructions: 730000000 cycles: 471184259 heartbeat IPC: 1.26872 cumulative IPC: 1.25836 (Simulation time: 0 hr 40 min 26 sec) 
Heartbeat CPU 0 instructions: 740000000 cycles: 478966231 heartbeat IPC: 1.28502 cumulative IPC: 1.25884 (Simulation time: 0 hr 40 min 59 sec) 
Heartbeat CPU 0 instructions: 750000003 cycles: 486897846 heartbeat IPC: 1.26078 cumulative IPC: 1.25888 (Simulation time: 0 hr 41 min 33 sec) 
Heartbeat CPU 0 instructions: 760000001 cycles: 494852478 heartbeat IPC: 1.25713 cumulative IPC: 1.25884 (Simulation time: 0 hr 42 min 7 sec) 
Heartbeat CPU 0 instructions: 770000001 cycles: 502862940 heartbeat IPC: 1.24837 cumulative IPC: 1.25866 (Simulation time: 0 hr 42 min 40 sec) 
Heartbeat CPU 0 instructions: 780000004 cycles: 511002748 heartbeat IPC: 1.22853 cumulative IPC: 1.25813 (Simulation time: 0 hr 43 min 14 sec) 
Heartbeat CPU 0 instructions: 790000001 cycles: 519030504 heartbeat IPC: 1.24568 cumulative IPC: 1.25791 (Simulation time: 0 hr 43 min 48 sec) 
Heartbeat CPU 0 instructions: 800000002 cycles: 526879085 heartbeat IPC: 1.27412 cumulative IPC: 1.25818 (Simulation time: 0 hr 44 min 22 sec) 
Heartbeat CPU 0 instructions: 810000000 cycles: 534699905 heartbeat IPC: 1.27864 cumulative IPC: 1.25851 (Simulation time: 0 hr 44 min 56 sec) 
Heartbeat CPU 0 instructions: 820000000 cycles: 542418411 heartbeat IPC: 1.29559 cumulative IPC: 1.25909 (Simulation time: 0 hr 45 min 29 sec) 
Heartbeat CPU 0 instructions: 830000000 cycles: 550154527 heartbeat IPC: 1.29264 cumulative IPC: 1.25961 (Simulation time: 0 hr 46 min 3 sec) 
Heartbeat CPU 0 instructions: 840000003 cycles: 557850393 heartbeat IPC: 1.2994 cumulative IPC: 1.26021 (Simulation time: 0 hr 46 min 37 sec) 
Heartbeat CPU 0 instructions: 850000000 cycles: 565709783 heartbeat IPC: 1.27236 cumulative IPC: 1.2604 (Simulation time: 0 hr 47 min 11 sec) 
Heartbeat CPU 0 instructions: 860000001 cycles: 573489039 heartbeat IPC: 1.28547 cumulative IPC: 1.26077 (Simulation time: 0 hr 47 min 45 sec) 
Heartbeat CPU 0 instructions: 870000000 cycles: 581185182 heartbeat IPC: 1.29935 cumulative IPC: 1.26133 (Simulation time: 0 hr 48 min 19 sec) 
Heartbeat CPU 0 instructions: 880000003 cycles: 589074839 heartbeat IPC: 1.26748 cumulative IPC: 1.26142 (Simulation time: 0 hr 48 min 53 sec) 
Heartbeat CPU 0 instructions: 890000003 cycles: 596915341 heartbeat IPC: 1.27543 cumulative IPC: 1.26162 (Simulation time: 0 hr 49 min 27 sec) 
Heartbeat CPU 0 instructions: 900000000 cycles: 604692678 heartbeat IPC: 1.28579 cumulative IPC: 1.26196 (Simulation time: 0 hr 50 min 1 sec) 
Heartbeat CPU 0 instructions: 910000001 cycles: 612390994 heartbeat IPC: 1.29899 cumulative IPC: 1.26247 (Simulation time: 0 hr 50 min 35 sec) 
Heartbeat CPU 0 instructions: 920000004 cycles: 620152439 heartbeat IPC: 1.28842 cumulative IPC: 1.26282 (Simulation time: 0 hr 51 min 9 sec) 
Heartbeat CPU 0 instructions: 930000002 cycles: 627794162 heartbeat IPC: 1.30861 cumulative IPC: 1.26343 (Simulation time: 0 hr 51 min 44 sec) 
Heartbeat CPU 0 instructions: 940000004 cycles: 635492393 heartbeat IPC: 1.299 cumulative IPC: 1.26389 (Simulation time: 0 hr 52 min 17 sec) 
Heartbeat CPU 0 instructions: 950000000 cycles: 643172495 heartbeat IPC: 1.30207 cumulative IPC: 1.26439 (Simulation time: 0 hr 52 min 51 sec) 
Heartbeat CPU 0 instructions: 960000001 cycles: 651040523 heartbeat IPC: 1.27097 cumulative IPC: 1.26447 (Simulation time: 0 hr 53 min 25 sec) 
Heartbeat CPU 0 instructions: 970000002 cycles: 658802229 heartbeat IPC: 1.28838 cumulative IPC: 1.26478 (Simulation time: 0 hr 53 min 59 sec) 
Heartbeat CPU 0 instructions: 980000000 cycles: 666583628 heartbeat IPC: 1.28512 cumulative IPC: 1.26504 (Simulation time: 0 hr 54 min 32 sec) 
Heartbeat CPU 0 instructions: 990000003 cycles: 674245927 heartbeat IPC: 1.30509 cumulative IPC: 1.26553 (Simulation time: 0 hr 55 min 6 sec) 
Heartbeat CPU 0 instructions: 1000000003 cycles: 682198107 heartbeat IPC: 1.25752 cumulative IPC: 1.26543 (Simulation time: 0 hr 55 min 41 sec) 
Heartbeat CPU 0 instructions: 1010000001 cycles: 689767633 heartbeat IPC: 1.32109 cumulative IPC: 1.26609 (Simulation time: 0 hr 56 min 15 sec) 
Heartbeat CPU 0 instructions: 1020000002 cycles: 697424003 heartbeat IPC: 1.3061 cumulative IPC: 1.26656 (Simulation time: 0 hr 56 min 50 sec) 
Heartbeat CPU 0 instructions: 1030000000 cycles: 705288087 heartbeat IPC: 1.2716 cumulative IPC: 1.26662 (Simulation time: 0 hr 57 min 24 sec) 
Heartbeat CPU 0 instructions: 1040000001 cycles: 713081350 heartbeat IPC: 1.28316 cumulative IPC: 1.26681 (Simulation time: 0 hr 57 min 58 sec) 
Heartbeat CPU 0 instructions: 1050000001 cycles: 720851268 heartbeat IPC: 1.28701 cumulative IPC: 1.26705 (Simulation time: 0 hr 58 min 32 sec) 
Heartbeat CPU 0 instructions: 1060000001 cycles: 728769096 heartbeat IPC: 1.26297 cumulative IPC: 1.267 (Simulation time: 0 hr 59 min 6 sec) 
Heartbeat CPU 0 instructions: 1070000002 cycles: 736615914 heartbeat IPC: 1.2744 cumulative IPC: 1.26708 (Simulation time: 0 hr 59 min 39 sec) 
Heartbeat CPU 0 instructions: 1080000000 cycles: 744416191 heartbeat IPC: 1.28201 cumulative IPC: 1.26725 (Simulation time: 1 hr 0 min 13 sec) 
Heartbeat CPU 0 instructions: 1090000002 cycles: 752326869 heartbeat IPC: 1.26411 cumulative IPC: 1.26722 (Simulation time: 1 hr 0 min 47 sec) 
Heartbeat CPU 0 instructions: 1100000001 cycles: 760037512 heartbeat IPC: 1.29691 cumulative IPC: 1.26754 (Simulation time: 1 hr 1 min 21 sec) 
Heartbeat CPU 0 instructions: 1110000003 cycles: 768030201 heartbeat IPC: 1.25114 cumulative IPC: 1.26736 (Simulation time: 1 hr 1 min 55 sec) 
Heartbeat CPU 0 instructions: 1120000000 cycles: 775938613 heartbeat IPC: 1.26448 cumulative IPC: 1.26733 (Simulation time: 1 hr 2 min 29 sec) 
Heartbeat CPU 0 instructions: 1130000001 cycles: 783779952 heartbeat IPC: 1.27529 cumulative IPC: 1.26741 (Simulation time: 1 hr 3 min 3 sec) 
Heartbeat CPU 0 instructions: 1140000000 cycles: 791577433 heartbeat IPC: 1.28247 cumulative IPC: 1.26757 (Simulation time: 1 hr 3 min 37 sec) 
Heartbeat CPU 0 instructions: 1150000000 cycles: 799461542 heartbeat IPC: 1.26837 cumulative IPC: 1.26758 (Simulation time: 1 hr 4 min 12 sec) 
Heartbeat CPU 0 instructions: 1160000000 cycles: 807373262 heartbeat IPC: 1.26395 cumulative IPC: 1.26754 (Simulation time: 1 hr 4 min 46 sec) 
Heartbeat CPU 0 instructions: 1170000002 cycles: 815253522 heartbeat IPC: 1.26899 cumulative IPC: 1.26755 (Simulation time: 1 hr 5 min 20 sec) 
Heartbeat CPU 0 instructions: 1180000001 cycles: 823201508 heartbeat IPC: 1.25818 cumulative IPC: 1.26746 (Simulation time: 1 hr 5 min 54 sec) 
Heartbeat CPU 0 instructions: 1190000000 cycles: 831031700 heartbeat IPC: 1.27711 cumulative IPC: 1.26755 (Simulation time: 1 hr 6 min 29 sec) 
Heartbeat CPU 0 instructions: 1200000000 cycles: 838780480 heartbeat IPC: 1.29053 cumulative IPC: 1.26778 (Simulation time: 1 hr 7 min 3 sec) 
Finished CPU 0 instructions: 1000000002 cycles: 788780281 cumulative IPC: 1.26778 (Simulation time: 1 hr 7 min 3 sec) 

ChampSim completed all CPUs

Region of Interest Statistics

CPU 0 cumulative IPC: 1.26778 instructions: 1000000002 cycles: 788780281
cpu0_DTLB TOTAL     ACCESS:  186588383  HIT:  186321754  MISS:     266629
cpu0_DTLB LOAD      ACCESS:  130175887  HIT:  129920230  MISS:     255657
cpu0_DTLB RFO       ACCESS:   56412496  HIT:   56401524  MISS:      10972
cpu0_DTLB PREFETCH  ACCESS:          0  HIT:          0  MISS:          0
cpu0_DTLB WRITEBACK ACCESS:          0  HIT:          0  MISS:          0
cpu0_DTLB TRANSLATION ACCESS:          0  HIT:          0  MISS:          0
cpu0_DTLB PREFETCH  REQUESTED:          0  ISSUED:          0  USEFUL:          0  USELESS:          0
cpu0_DTLB AVERAGE MISS LATENCY: 128.372 cycles
cpu0_ITLB TOTAL     ACCESS:   77435006  HIT:   77435006  MISS:          0
cpu0_ITLB LOAD      ACCESS:   77435006  HIT:   77435006  MISS:          0
cpu0_ITLB RFO       ACCESS:          0  HIT:          0  MISS:          0
cpu0_ITLB PREFETCH  ACCESS:          0  HIT:          0  MISS:          0
cpu0_ITLB WRITEBACK ACCESS:          0  HIT:          0  MISS:          0
cpu0_ITLB TRANSLATION ACCESS:          0  HIT:          0  MISS:          0
cpu0_ITLB PREFETCH  REQUESTED:          0  ISSUED:          0  USEFUL:          0  USELESS:          0
cpu0_ITLB AVERAGE MISS LATENCY: -nan cycles
cpu0_L1I TOTAL     ACCESS:  106808567  HIT:  106328604  MISS:     479963
cpu0_L1I LOAD      ACCESS:  106808567  HIT:  106328604  MISS:     479963
cpu0_L1I RFO       ACCESS:          0  HIT:          0  MISS:          0
cpu0_L1I PREFETCH  ACCESS:          0  HIT:          0  MISS:          0
cpu0_L1I WRITEBACK ACCESS:          0  HIT:          0  MISS:          0
cpu0_L1I TRANSLATION ACCESS:          0  HIT:          0  MISS:          0
cpu0_L1I PREFETCH  REQUESTED:          0  ISSUED:          0  USEFUL:          0  USELESS:          0
cpu0_L1I AVERAGE MISS LATENCY: 11.3566 cycles
cpu0_STLB TOTAL     ACCESS:     266629  HIT:     105897  MISS:     160732
cpu0_STLB LOAD      ACCESS:     255657  HIT:      94976  MISS:     160681
cpu0_STLB RFO       ACCESS:      10972  HIT:      10921  MISS:         51
cpu0_STLB PREFETCH  ACCESS:          0  HIT:          0  MISS:          0
cpu0_STLB WRITEBACK ACCESS:          0  HIT:          0  MISS:          0
cpu0_STLB TRANSLATION ACCESS:          0  HIT:          0  MISS:          0
cpu0_STLB PREFETCH  REQUESTED:          0  ISSUED:          0  USEFUL:          0  USELESS:          0
cpu0_STLB AVERAGE MISS LATENCY: 194.698 cycles
cpu0_L1D TOTAL     ACCESS:  267778244  HIT:  266928894  MISS:     849350
cpu0_L1D LOAD      ACCESS:  151372810  HIT:  150858664  MISS:     514146
cpu0_L1D RFO       ACCESS:  116245857  HIT:  116044969  MISS:     200888
cpu0_L1D PREFETCH  ACCESS:          0  HIT:          0  MISS:          0
cpu0_L1D WRITEBACK ACCESS:          0  HIT:          0  MISS:          0
cpu0_L1D TRANSLATION ACCESS:     159577  HIT:      25261  MISS:     134316
cpu0_L1D PREFETCH  REQUESTED:          0  ISSUED:          0  USEFUL:          0  USELESS:          0
cpu0_L1D AVERAGE MISS LATENCY: 68.5599 cycles
cpu0_L2C TOTAL     ACCESS:    2035359  HIT:    1749964  MISS:     285395
cpu0_L2C LOAD      ACCESS:     994072  HIT:     717819  MISS:     276253
cpu0_L2C RFO       ACCESS:     200884  HIT:     193048  MISS:       7836
cpu0_L2C PREFETCH  ACCESS:     278926  HIT:     278753  MISS:        173
cpu0_L2C WRITEBACK ACCESS:     427161  HIT:     426723  MISS:        438
cpu0_L2C TRANSLATION ACCESS:     134316  HIT:     133621  MISS:        695
cpu0_L2C PREFETCH  REQUESTED:     618012  ISSUED:     609760  USEFUL:         38  USELESS:        139
cpu0_L2C AVERAGE MISS LATENCY: 171.91 cycles
LLC TOTAL     ACCESS:     776938  HIT:     302760  MISS:     474178
LLC LOAD      ACCESS:     276241  HIT:      17233  MISS:     259008
LLC RFO       ACCESS:       7836  HIT:       4790  MISS:       3046
LLC PREFETCH  ACCESS:     295189  HIT:      86978  MISS:     208211
LLC WRITEBACK ACCESS:     196977  HIT:     193640  MISS:       3337
LLC TRANSLATION ACCESS:        695  HIT:        119  MISS:        576
LLC PREFETCH  REQUESTED:          0  ISSUED:          0  USEFUL:          0  USELESS:          0
LLC AVERAGE MISS LATENCY: 186.736 cycles

DRAM Statistics
 CHANNEL 0
 RQ ROW_BUFFER_HIT:      89763  ROW_BUFFER_MISS:     381078
 DBUS AVG_CONGESTED_CYCLE:    3.87824
 WQ ROW_BUFFER_HIT:       5427  ROW_BUFFER_MISS:     182493  FULL:          0


CPU 0 Branch Prediction Accuracy: 90.3883% MPKI: 14.2102 Average ROB Occupancy at Mispredict: 33.625
Branch type MPKI
BRANCH_DIRECT_JUMP: 2.4e-05
BRANCH_INDIRECT: 0.001995
BRANCH_CONDITIONAL: 14.2082
BRANCH_DIRECT_CALL: 3e-06
BRANCH_INDIRECT_CALL: 0
BRANCH_RETURN: 4e-06

***************** Done with 631.deepsjeng_s-928B.champsimtrace.xz using spp-dev, on Thu Apr 14 17:53:16 CDT 2022 ******************
