Started running file 657.xz_s-3167B.champsimtrace.xz at time Thu Apr 14 22:31:07 CDT 2022 with prefetcher spp-dev

*** ChampSim Multicore Out-of-Order Simulator ***

Warmup Instructions: 200000000
Simulation Instructions: 1000000000
Number of CPUs: 1
Off-chip DRAM Size: 4 GiB Channels: 1 Width: 64-bit Data Rate: 3200 MT/s

VirtualMemory physical capacity: 8588881920 num_ppages: 2096895
VirtualMemory page size: 4096 log2_page_size: 12

CPU 0 runs /home/faculty/p/pgratz/dpc3_traces/657.xz_s-3167B.champsimtrace.xz
CPU 0 Bimodal branch predictor
Basic BTB sets: 1024 ways: 8 indirect buffer size: 4096 RAS size: 64
SPP-DEV original prefetcher
Heartbeat CPU 0 instructions: 10000003 cycles: 2511768 heartbeat IPC: 3.98126 cumulative IPC: 3.98126 (Simulation time: 0 hr 0 min 28 sec) 
Heartbeat CPU 0 instructions: 20000003 cycles: 5023723 heartbeat IPC: 3.98096 cumulative IPC: 3.98111 (Simulation time: 0 hr 0 min 57 sec) 
Heartbeat CPU 0 instructions: 30000001 cycles: 7529693 heartbeat IPC: 3.99047 cumulative IPC: 3.98423 (Simulation time: 0 hr 1 min 26 sec) 
Heartbeat CPU 0 instructions: 40000000 cycles: 10035671 heartbeat IPC: 3.99046 cumulative IPC: 3.98578 (Simulation time: 0 hr 1 min 54 sec) 
Heartbeat CPU 0 instructions: 50000002 cycles: 12541688 heartbeat IPC: 3.9904 cumulative IPC: 3.9867 (Simulation time: 0 hr 2 min 23 sec) 
Heartbeat CPU 0 instructions: 60000001 cycles: 15050718 heartbeat IPC: 3.9856 cumulative IPC: 3.98652 (Simulation time: 0 hr 2 min 51 sec) 
Heartbeat CPU 0 instructions: 70000002 cycles: 17556722 heartbeat IPC: 3.99042 cumulative IPC: 3.98708 (Simulation time: 0 hr 3 min 20 sec) 
Heartbeat CPU 0 instructions: 80000000 cycles: 20065699 heartbeat IPC: 3.98569 cumulative IPC: 3.9869 (Simulation time: 0 hr 3 min 48 sec) 
Heartbeat CPU 0 instructions: 90000001 cycles: 22571680 heartbeat IPC: 3.99045 cumulative IPC: 3.9873 (Simulation time: 0 hr 4 min 17 sec) 
Heartbeat CPU 0 instructions: 100000002 cycles: 25080640 heartbeat IPC: 3.98572 cumulative IPC: 3.98714 (Simulation time: 0 hr 4 min 46 sec) 
Heartbeat CPU 0 instructions: 110000002 cycles: 27589593 heartbeat IPC: 3.98573 cumulative IPC: 3.98701 (Simulation time: 0 hr 5 min 14 sec) 
Heartbeat CPU 0 instructions: 120000002 cycles: 30098701 heartbeat IPC: 3.98548 cumulative IPC: 3.98688 (Simulation time: 0 hr 5 min 43 sec) 
Heartbeat CPU 0 instructions: 130000001 cycles: 32607689 heartbeat IPC: 3.98567 cumulative IPC: 3.98679 (Simulation time: 0 hr 6 min 11 sec) 
Heartbeat CPU 0 instructions: 140000002 cycles: 35116758 heartbeat IPC: 3.98554 cumulative IPC: 3.9867 (Simulation time: 0 hr 6 min 40 sec) 
Heartbeat CPU 0 instructions: 150000000 cycles: 37625734 heartbeat IPC: 3.98569 cumulative IPC: 3.98663 (Simulation time: 0 hr 7 min 8 sec) 
Heartbeat CPU 0 instructions: 160000003 cycles: 40134894 heartbeat IPC: 3.9854 cumulative IPC: 3.98656 (Simulation time: 0 hr 7 min 37 sec) 
Heartbeat CPU 0 instructions: 170000001 cycles: 42644367 heartbeat IPC: 3.9849 cumulative IPC: 3.98646 (Simulation time: 0 hr 8 min 5 sec) 
Heartbeat CPU 0 instructions: 180000000 cycles: 45151132 heartbeat IPC: 3.9892 cumulative IPC: 3.98661 (Simulation time: 0 hr 8 min 34 sec) 
Heartbeat CPU 0 instructions: 190000000 cycles: 47657562 heartbeat IPC: 3.98974 cumulative IPC: 3.98678 (Simulation time: 0 hr 9 min 2 sec) 
Heartbeat CPU 0 instructions: 200000002 cycles: 50160568 heartbeat IPC: 3.9952 cumulative IPC: 3.9872 (Simulation time: 0 hr 9 min 31 sec) 

Warmup complete CPU 0 instructions: 200000002 cycles: 50160568 (Simulation time: 0 hr 9 min 31 sec) 

Heartbeat CPU 0 instructions: 210000000 cycles: 59206596 heartbeat IPC: 1.10546 cumulative IPC: 1.10546 (Simulation time: 0 hr 10 min 1 sec) 
Heartbeat CPU 0 instructions: 220000001 cycles: 67292996 heartbeat IPC: 1.23664 cumulative IPC: 1.16738 (Simulation time: 0 hr 10 min 31 sec) 
Heartbeat CPU 0 instructions: 230000000 cycles: 74326456 heartbeat IPC: 1.42178 cumulative IPC: 1.24142 (Simulation time: 0 hr 11 min 2 sec) 
Heartbeat CPU 0 instructions: 240000002 cycles: 81516994 heartbeat IPC: 1.39072 cumulative IPC: 1.27566 (Simulation time: 0 hr 11 min 31 sec) 
Heartbeat CPU 0 instructions: 250000000 cycles: 88402060 heartbeat IPC: 1.45242 cumulative IPC: 1.30748 (Simulation time: 0 hr 12 min 0 sec) 
Heartbeat CPU 0 instructions: 260000000 cycles: 94378223 heartbeat IPC: 1.67331 cumulative IPC: 1.35692 (Simulation time: 0 hr 12 min 28 sec) 
Heartbeat CPU 0 instructions: 270000000 cycles: 100161926 heartbeat IPC: 1.729 cumulative IPC: 1.39996 (Simulation time: 0 hr 12 min 56 sec) 
Heartbeat CPU 0 instructions: 280000000 cycles: 108716791 heartbeat IPC: 1.16893 cumulative IPC: 1.36621 (Simulation time: 0 hr 13 min 27 sec) 
Heartbeat CPU 0 instructions: 290000001 cycles: 115763776 heartbeat IPC: 1.41905 cumulative IPC: 1.37188 (Simulation time: 0 hr 13 min 57 sec) 
Heartbeat CPU 0 instructions: 300000004 cycles: 122108827 heartbeat IPC: 1.57603 cumulative IPC: 1.38989 (Simulation time: 0 hr 14 min 26 sec) 
Heartbeat CPU 0 instructions: 310000003 cycles: 128800708 heartbeat IPC: 1.49435 cumulative IPC: 1.39878 (Simulation time: 0 hr 14 min 54 sec) 
Heartbeat CPU 0 instructions: 320000003 cycles: 136552989 heartbeat IPC: 1.28994 cumulative IPC: 1.38901 (Simulation time: 0 hr 15 min 24 sec) 
Heartbeat CPU 0 instructions: 330000003 cycles: 142795409 heartbeat IPC: 1.60194 cumulative IPC: 1.40336 (Simulation time: 0 hr 15 min 52 sec) 
Heartbeat CPU 0 instructions: 340000001 cycles: 150316770 heartbeat IPC: 1.32955 cumulative IPC: 1.39782 (Simulation time: 0 hr 16 min 22 sec) 
Heartbeat CPU 0 instructions: 350000002 cycles: 158289277 heartbeat IPC: 1.25431 cumulative IPC: 1.38724 (Simulation time: 0 hr 16 min 52 sec) 
Heartbeat CPU 0 instructions: 360000002 cycles: 166382073 heartbeat IPC: 1.23567 cumulative IPC: 1.37668 (Simulation time: 0 hr 17 min 22 sec) 
Heartbeat CPU 0 instructions: 370000001 cycles: 173675006 heartbeat IPC: 1.37119 cumulative IPC: 1.37636 (Simulation time: 0 hr 17 min 51 sec) 
Heartbeat CPU 0 instructions: 380000001 cycles: 180532749 heartbeat IPC: 1.45821 cumulative IPC: 1.38066 (Simulation time: 0 hr 18 min 20 sec) 
Heartbeat CPU 0 instructions: 390000000 cycles: 188818859 heartbeat IPC: 1.20684 cumulative IPC: 1.37028 (Simulation time: 0 hr 18 min 51 sec) 
Heartbeat CPU 0 instructions: 400000001 cycles: 196677238 heartbeat IPC: 1.27253 cumulative IPC: 1.36503 (Simulation time: 0 hr 19 min 21 sec) 
Heartbeat CPU 0 instructions: 410000004 cycles: 204793319 heartbeat IPC: 1.23212 cumulative IPC: 1.35806 (Simulation time: 0 hr 19 min 51 sec) 
Heartbeat CPU 0 instructions: 420000000 cycles: 213112938 heartbeat IPC: 1.20198 cumulative IPC: 1.35009 (Simulation time: 0 hr 20 min 21 sec) 
Heartbeat CPU 0 instructions: 430000004 cycles: 220948793 heartbeat IPC: 1.27619 cumulative IPC: 1.3467 (Simulation time: 0 hr 20 min 51 sec) 
Heartbeat CPU 0 instructions: 440000002 cycles: 228873750 heartbeat IPC: 1.26184 cumulative IPC: 1.34293 (Simulation time: 0 hr 21 min 20 sec) 
Heartbeat CPU 0 instructions: 450000003 cycles: 236644196 heartbeat IPC: 1.28693 cumulative IPC: 1.3406 (Simulation time: 0 hr 21 min 49 sec) 
Heartbeat CPU 0 instructions: 460000000 cycles: 244364894 heartbeat IPC: 1.29522 cumulative IPC: 1.3388 (Simulation time: 0 hr 22 min 19 sec) 
Heartbeat CPU 0 instructions: 470000000 cycles: 251866092 heartbeat IPC: 1.33312 cumulative IPC: 1.33859 (Simulation time: 0 hr 22 min 48 sec) 
Heartbeat CPU 0 instructions: 480000002 cycles: 258642341 heartbeat IPC: 1.47574 cumulative IPC: 1.34304 (Simulation time: 0 hr 23 min 17 sec) 
Heartbeat CPU 0 instructions: 490000003 cycles: 265251060 heartbeat IPC: 1.51315 cumulative IPC: 1.34827 (Simulation time: 0 hr 23 min 46 sec) 
Heartbeat CPU 0 instructions: 500000004 cycles: 272365663 heartbeat IPC: 1.40556 cumulative IPC: 1.3501 (Simulation time: 0 hr 24 min 16 sec) 
Heartbeat CPU 0 instructions: 510000000 cycles: 286162430 heartbeat IPC: 0.724807 cumulative IPC: 1.31355 (Simulation time: 0 hr 25 min 39 sec) 
Heartbeat CPU 0 instructions: 520000002 cycles: 293586487 heartbeat IPC: 1.34697 cumulative IPC: 1.31457 (Simulation time: 0 hr 26 min 9 sec) 
Heartbeat CPU 0 instructions: 530000004 cycles: 300543790 heartbeat IPC: 1.43734 cumulative IPC: 1.31798 (Simulation time: 0 hr 26 min 38 sec) 
Heartbeat CPU 0 instructions: 540000000 cycles: 307399088 heartbeat IPC: 1.45873 cumulative IPC: 1.32173 (Simulation time: 0 hr 27 min 7 sec) 
Heartbeat CPU 0 instructions: 550000000 cycles: 316371514 heartbeat IPC: 1.11453 cumulative IPC: 1.31475 (Simulation time: 0 hr 27 min 39 sec) 
Heartbeat CPU 0 instructions: 560000003 cycles: 323586677 heartbeat IPC: 1.38597 cumulative IPC: 1.31663 (Simulation time: 0 hr 28 min 8 sec) 
Heartbeat CPU 0 instructions: 570000004 cycles: 330671568 heartbeat IPC: 1.41145 cumulative IPC: 1.31902 (Simulation time: 0 hr 28 min 37 sec) 
Heartbeat CPU 0 instructions: 580000001 cycles: 337739074 heartbeat IPC: 1.41493 cumulative IPC: 1.32138 (Simulation time: 0 hr 29 min 7 sec) 
Heartbeat CPU 0 instructions: 590000000 cycles: 344884160 heartbeat IPC: 1.39956 cumulative IPC: 1.32327 (Simulation time: 0 hr 29 min 36 sec) 
Heartbeat CPU 0 instructions: 600000000 cycles: 352136516 heartbeat IPC: 1.37886 cumulative IPC: 1.32461 (Simulation time: 0 hr 30 min 5 sec) 
Heartbeat CPU 0 instructions: 610000004 cycles: 359499176 heartbeat IPC: 1.35821 cumulative IPC: 1.32541 (Simulation time: 0 hr 30 min 35 sec) 
Heartbeat CPU 0 instructions: 620000001 cycles: 366349184 heartbeat IPC: 1.45985 cumulative IPC: 1.32832 (Simulation time: 0 hr 31 min 4 sec) 
Heartbeat CPU 0 instructions: 630000001 cycles: 373586193 heartbeat IPC: 1.38179 cumulative IPC: 1.32952 (Simulation time: 0 hr 31 min 34 sec) 
Heartbeat CPU 0 instructions: 640000003 cycles: 380596158 heartbeat IPC: 1.42654 cumulative IPC: 1.33158 (Simulation time: 0 hr 32 min 3 sec) 
Heartbeat CPU 0 instructions: 650000001 cycles: 386746635 heartbeat IPC: 1.62589 cumulative IPC: 1.33695 (Simulation time: 0 hr 32 min 31 sec) 
Heartbeat CPU 0 instructions: 660000003 cycles: 393941387 heartbeat IPC: 1.3899 cumulative IPC: 1.33806 (Simulation time: 0 hr 33 min 1 sec) 
Heartbeat CPU 0 instructions: 670000004 cycles: 401169434 heartbeat IPC: 1.3835 cumulative IPC: 1.339 (Simulation time: 0 hr 33 min 30 sec) 
Heartbeat CPU 0 instructions: 680000002 cycles: 407715689 heartbeat IPC: 1.52759 cumulative IPC: 1.34245 (Simulation time: 0 hr 33 min 59 sec) 
Heartbeat CPU 0 instructions: 690000003 cycles: 415657769 heartbeat IPC: 1.25912 cumulative IPC: 1.34064 (Simulation time: 0 hr 34 min 29 sec) 
Heartbeat CPU 0 instructions: 700000001 cycles: 423049128 heartbeat IPC: 1.35293 cumulative IPC: 1.34088 (Simulation time: 0 hr 34 min 59 sec) 
Heartbeat CPU 0 instructions: 710000000 cycles: 430659846 heartbeat IPC: 1.31394 cumulative IPC: 1.34034 (Simulation time: 0 hr 35 min 29 sec) 
Heartbeat CPU 0 instructions: 720000003 cycles: 438316170 heartbeat IPC: 1.30611 cumulative IPC: 1.33967 (Simulation time: 0 hr 35 min 59 sec) 
Heartbeat CPU 0 instructions: 730000004 cycles: 445639203 heartbeat IPC: 1.36555 cumulative IPC: 1.34015 (Simulation time: 0 hr 36 min 28 sec) 
Heartbeat CPU 0 instructions: 740000002 cycles: 453267240 heartbeat IPC: 1.31095 cumulative IPC: 1.3396 (Simulation time: 0 hr 36 min 57 sec) 
Heartbeat CPU 0 instructions: 750000003 cycles: 459364823 heartbeat IPC: 1.63999 cumulative IPC: 1.34407 (Simulation time: 0 hr 37 min 26 sec) 
Heartbeat CPU 0 instructions: 760000000 cycles: 465105918 heartbeat IPC: 1.74183 cumulative IPC: 1.34958 (Simulation time: 0 hr 37 min 55 sec) 
Heartbeat CPU 0 instructions: 770000002 cycles: 470896292 heartbeat IPC: 1.727 cumulative IPC: 1.35477 (Simulation time: 0 hr 38 min 24 sec) 
Heartbeat CPU 0 instructions: 780000004 cycles: 476558552 heartbeat IPC: 1.76608 cumulative IPC: 1.36023 (Simulation time: 0 hr 38 min 53 sec) 
Heartbeat CPU 0 instructions: 790000000 cycles: 482383792 heartbeat IPC: 1.71667 cumulative IPC: 1.36504 (Simulation time: 0 hr 39 min 22 sec) 
Heartbeat CPU 0 instructions: 800000002 cycles: 488187835 heartbeat IPC: 1.72294 cumulative IPC: 1.36978 (Simulation time: 0 hr 39 min 50 sec) 
Heartbeat CPU 0 instructions: 810000002 cycles: 494038953 heartbeat IPC: 1.70908 cumulative IPC: 1.37425 (Simulation time: 0 hr 40 min 19 sec) 
Heartbeat CPU 0 instructions: 820000000 cycles: 499792300 heartbeat IPC: 1.73812 cumulative IPC: 1.37891 (Simulation time: 0 hr 40 min 48 sec) 
Heartbeat CPU 0 instructions: 830000000 cycles: 505698746 heartbeat IPC: 1.69307 cumulative IPC: 1.38298 (Simulation time: 0 hr 41 min 17 sec) 
Heartbeat CPU 0 instructions: 840000002 cycles: 511340881 heartbeat IPC: 1.77238 cumulative IPC: 1.38774 (Simulation time: 0 hr 41 min 46 sec) 
Heartbeat CPU 0 instructions: 850000004 cycles: 517321444 heartbeat IPC: 1.67208 cumulative IPC: 1.39138 (Simulation time: 0 hr 42 min 15 sec) 
Heartbeat CPU 0 instructions: 860000004 cycles: 523105554 heartbeat IPC: 1.72887 cumulative IPC: 1.39551 (Simulation time: 0 hr 42 min 44 sec) 
Heartbeat CPU 0 instructions: 870000000 cycles: 528960166 heartbeat IPC: 1.70805 cumulative IPC: 1.39933 (Simulation time: 0 hr 43 min 12 sec) 
Heartbeat CPU 0 instructions: 880000000 cycles: 534671207 heartbeat IPC: 1.75099 cumulative IPC: 1.40348 (Simulation time: 0 hr 43 min 41 sec) 
Heartbeat CPU 0 instructions: 890000003 cycles: 540334514 heartbeat IPC: 1.76575 cumulative IPC: 1.40766 (Simulation time: 0 hr 44 min 10 sec) 
Heartbeat CPU 0 instructions: 900000000 cycles: 546120786 heartbeat IPC: 1.72823 cumulative IPC: 1.4114 (Simulation time: 0 hr 44 min 38 sec) 
Heartbeat CPU 0 instructions: 910000004 cycles: 551848169 heartbeat IPC: 1.746 cumulative IPC: 1.41522 (Simulation time: 0 hr 45 min 7 sec) 
Heartbeat CPU 0 instructions: 920000001 cycles: 557637410 heartbeat IPC: 1.72734 cumulative IPC: 1.41878 (Simulation time: 0 hr 45 min 36 sec) 
Heartbeat CPU 0 instructions: 930000001 cycles: 564527206 heartbeat IPC: 1.45142 cumulative IPC: 1.41922 (Simulation time: 0 hr 46 min 6 sec) 
Heartbeat CPU 0 instructions: 940000000 cycles: 571715836 heartbeat IPC: 1.39109 cumulative IPC: 1.41883 (Simulation time: 0 hr 46 min 37 sec) 
Heartbeat CPU 0 instructions: 950000002 cycles: 579808889 heartbeat IPC: 1.23563 cumulative IPC: 1.41603 (Simulation time: 0 hr 47 min 8 sec) 
Heartbeat CPU 0 instructions: 960000004 cycles: 585616052 heartbeat IPC: 1.72201 cumulative IPC: 1.41935 (Simulation time: 0 hr 47 min 36 sec) 
Heartbeat CPU 0 instructions: 970000001 cycles: 592238197 heartbeat IPC: 1.51008 cumulative IPC: 1.42046 (Simulation time: 0 hr 48 min 5 sec) 
Heartbeat CPU 0 instructions: 980000001 cycles: 601029053 heartbeat IPC: 1.13755 cumulative IPC: 1.41595 (Simulation time: 0 hr 48 min 36 sec) 
Heartbeat CPU 0 instructions: 990000000 cycles: 610308547 heartbeat IPC: 1.07764 cumulative IPC: 1.41034 (Simulation time: 0 hr 49 min 7 sec) 
Heartbeat CPU 0 instructions: 1000000000 cycles: 617733245 heartbeat IPC: 1.34686 cumulative IPC: 1.40951 (Simulation time: 0 hr 49 min 38 sec) 
Heartbeat CPU 0 instructions: 1010000004 cycles: 624491806 heartbeat IPC: 1.47961 cumulative IPC: 1.41034 (Simulation time: 0 hr 50 min 7 sec) 
Heartbeat CPU 0 instructions: 1020000000 cycles: 634292414 heartbeat IPC: 1.02034 cumulative IPC: 1.40379 (Simulation time: 0 hr 50 min 39 sec) 
Heartbeat CPU 0 instructions: 1030000003 cycles: 645164502 heartbeat IPC: 0.919787 cumulative IPC: 1.39495 (Simulation time: 0 hr 51 min 11 sec) 
Heartbeat CPU 0 instructions: 1040000003 cycles: 656210660 heartbeat IPC: 0.905292 cumulative IPC: 1.38602 (Simulation time: 0 hr 51 min 44 sec) 
Heartbeat CPU 0 instructions: 1050000000 cycles: 666457516 heartbeat IPC: 0.975909 cumulative IPC: 1.37921 (Simulation time: 0 hr 52 min 16 sec) 
Heartbeat CPU 0 instructions: 1060000000 cycles: 675273342 heartbeat IPC: 1.13432 cumulative IPC: 1.37575 (Simulation time: 0 hr 52 min 48 sec) 
Heartbeat CPU 0 instructions: 1070000001 cycles: 681909005 heartbeat IPC: 1.50701 cumulative IPC: 1.37713 (Simulation time: 0 hr 53 min 17 sec) 
Heartbeat CPU 0 instructions: 1080000004 cycles: 688053424 heartbeat IPC: 1.62749 cumulative IPC: 1.37954 (Simulation time: 0 hr 53 min 46 sec) 
Heartbeat CPU 0 instructions: 1090000002 cycles: 696789906 heartbeat IPC: 1.14463 cumulative IPC: 1.37637 (Simulation time: 0 hr 54 min 17 sec) 
Heartbeat CPU 0 instructions: 1100000004 cycles: 705105347 heartbeat IPC: 1.20258 cumulative IPC: 1.37416 (Simulation time: 0 hr 54 min 48 sec) 
Heartbeat CPU 0 instructions: 1110000000 cycles: 715384532 heartbeat IPC: 0.972839 cumulative IPC: 1.36796 (Simulation time: 0 hr 55 min 20 sec) 
Heartbeat CPU 0 instructions: 1120000004 cycles: 724745328 heartbeat IPC: 1.06829 cumulative IPC: 1.3638 (Simulation time: 0 hr 55 min 51 sec) 
Heartbeat CPU 0 instructions: 1130000002 cycles: 731378669 heartbeat IPC: 1.50754 cumulative IPC: 1.3652 (Simulation time: 0 hr 56 min 20 sec) 
Heartbeat CPU 0 instructions: 1140000003 cycles: 738730314 heartbeat IPC: 1.36024 cumulative IPC: 1.36515 (Simulation time: 0 hr 56 min 51 sec) 
Heartbeat CPU 0 instructions: 1150000003 cycles: 744976857 heartbeat IPC: 1.60089 cumulative IPC: 1.36727 (Simulation time: 0 hr 57 min 21 sec) 
Heartbeat CPU 0 instructions: 1160000003 cycles: 751279020 heartbeat IPC: 1.58676 cumulative IPC: 1.36924 (Simulation time: 0 hr 57 min 51 sec) 
Heartbeat CPU 0 instructions: 1170000001 cycles: 757470178 heartbeat IPC: 1.61521 cumulative IPC: 1.37139 (Simulation time: 0 hr 58 min 21 sec) 
Heartbeat CPU 0 instructions: 1180000002 cycles: 763664574 heartbeat IPC: 1.61436 cumulative IPC: 1.3735 (Simulation time: 0 hr 58 min 51 sec) 
Heartbeat CPU 0 instructions: 1190000004 cycles: 769945985 heartbeat IPC: 1.592 cumulative IPC: 1.37541 (Simulation time: 0 hr 59 min 21 sec) 
Heartbeat CPU 0 instructions: 1200000004 cycles: 777657184 heartbeat IPC: 1.29682 cumulative IPC: 1.37458 (Simulation time: 0 hr 59 min 52 sec) 
Finished CPU 0 instructions: 1000000002 cycles: 727496616 cumulative IPC: 1.37458 (Simulation time: 0 hr 59 min 52 sec) 

ChampSim completed all CPUs

Region of Interest Statistics

CPU 0 cumulative IPC: 1.37458 instructions: 1000000002 cycles: 727496616
cpu0_DTLB TOTAL     ACCESS:  176561283  HIT:  171597109  MISS:    4964174
cpu0_DTLB LOAD      ACCESS:  138830935  HIT:  135869038  MISS:    2961897
cpu0_DTLB RFO       ACCESS:   37730348  HIT:   35728071  MISS:    2002277
cpu0_DTLB PREFETCH  ACCESS:          0  HIT:          0  MISS:          0
cpu0_DTLB WRITEBACK ACCESS:          0  HIT:          0  MISS:          0
cpu0_DTLB TRANSLATION ACCESS:          0  HIT:          0  MISS:          0
cpu0_DTLB PREFETCH  REQUESTED:          0  ISSUED:          0  USEFUL:          0  USELESS:          0
cpu0_DTLB AVERAGE MISS LATENCY: 11.4718 cycles
cpu0_ITLB TOTAL     ACCESS:   85838871  HIT:   85838868  MISS:          3
cpu0_ITLB LOAD      ACCESS:   85838871  HIT:   85838868  MISS:          3
cpu0_ITLB RFO       ACCESS:          0  HIT:          0  MISS:          0
cpu0_ITLB PREFETCH  ACCESS:          0  HIT:          0  MISS:          0
cpu0_ITLB WRITEBACK ACCESS:          0  HIT:          0  MISS:          0
cpu0_ITLB TRANSLATION ACCESS:          0  HIT:          0  MISS:          0
cpu0_ITLB PREFETCH  REQUESTED:          0  ISSUED:          0  USEFUL:          0  USELESS:          0
cpu0_ITLB AVERAGE MISS LATENCY: 222.667 cycles
cpu0_L1I TOTAL     ACCESS:   18007078  HIT:   18006378  MISS:        700
cpu0_L1I LOAD      ACCESS:   18007078  HIT:   18006378  MISS:        700
cpu0_L1I RFO       ACCESS:          0  HIT:          0  MISS:          0
cpu0_L1I PREFETCH  ACCESS:          0  HIT:          0  MISS:          0
cpu0_L1I WRITEBACK ACCESS:          0  HIT:          0  MISS:          0
cpu0_L1I TRANSLATION ACCESS:          0  HIT:          0  MISS:          0
cpu0_L1I PREFETCH  REQUESTED:          0  ISSUED:          0  USEFUL:          0  USELESS:          0
cpu0_L1I AVERAGE MISS LATENCY: 72.6329 cycles
cpu0_STLB TOTAL     ACCESS:    4964177  HIT:    4947465  MISS:      16712
cpu0_STLB LOAD      ACCESS:    2961900  HIT:    2949273  MISS:      12627
cpu0_STLB RFO       ACCESS:    2002277  HIT:    1998192  MISS:       4085
cpu0_STLB PREFETCH  ACCESS:          0  HIT:          0  MISS:          0
cpu0_STLB WRITEBACK ACCESS:          0  HIT:          0  MISS:          0
cpu0_STLB TRANSLATION ACCESS:          0  HIT:          0  MISS:          0
cpu0_STLB PREFETCH  REQUESTED:          0  ISSUED:          0  USEFUL:          0  USELESS:          0
cpu0_STLB AVERAGE MISS LATENCY: 137.293 cycles
cpu0_L1D TOTAL     ACCESS:  185877534  HIT:  180852583  MISS:    5024951
cpu0_L1D LOAD      ACCESS:  122506452  HIT:  118742155  MISS:    3764297
cpu0_L1D RFO       ACCESS:   63354436  HIT:   62101377  MISS:    1253059
cpu0_L1D PREFETCH  ACCESS:          0  HIT:          0  MISS:          0
cpu0_L1D WRITEBACK ACCESS:          0  HIT:          0  MISS:          0
cpu0_L1D TRANSLATION ACCESS:      16646  HIT:       9051  MISS:       7595
cpu0_L1D PREFETCH  REQUESTED:          0  ISSUED:          0  USEFUL:          0  USELESS:          0
cpu0_L1D AVERAGE MISS LATENCY: 74.8868 cycles
cpu0_L2C TOTAL     ACCESS:    9146648  HIT:    7272994  MISS:    1873654
cpu0_L2C LOAD      ACCESS:    3764825  HIT:    2390335  MISS:    1374490
cpu0_L2C RFO       ACCESS:    1252836  HIT:     802947  MISS:     449889
cpu0_L2C PREFETCH  ACCESS:     438416  HIT:     395030  MISS:      43386
cpu0_L2C WRITEBACK ACCESS:    3682976  HIT:    3677424  MISS:       5552
cpu0_L2C TRANSLATION ACCESS:       7595  HIT:       7258  MISS:        337
cpu0_L2C PREFETCH  REQUESTED:    1804172  ISSUED:    1514350  USEFUL:      71275  USELESS:        792
cpu0_L2C AVERAGE MISS LATENCY: 163.408 cycles
LLC TOTAL     ACCESS:    3956274  HIT:    2614530  MISS:    1341744
LLC LOAD      ACCESS:    1345801  HIT:     629142  MISS:     716659
LLC RFO       ACCESS:     449883  HIT:      64176  MISS:     385707
LLC PREFETCH  ACCESS:     833946  HIT:     607544  MISS:     226402
LLC WRITEBACK ACCESS:    1326307  HIT:    1313407  MISS:      12900
LLC TRANSLATION ACCESS:        337  HIT:        261  MISS:         76
LLC PREFETCH  REQUESTED:          0  ISSUED:          0  USEFUL:          0  USELESS:          0
LLC AVERAGE MISS LATENCY: 258.982 cycles

DRAM Statistics
 CHANNEL 0
 RQ ROW_BUFFER_HIT:      92512  ROW_BUFFER_MISS:    1236313
 DBUS AVG_CONGESTED_CYCLE:    3.88173
 WQ ROW_BUFFER_HIT:     178960  ROW_BUFFER_MISS:     729484  FULL:          0


CPU 0 Branch Prediction Accuracy: 89.8884% MPKI: 15.2201 Average ROB Occupancy at Mispredict: 40.174
Branch type MPKI
BRANCH_DIRECT_JUMP: 8e-06
BRANCH_INDIRECT: 0.731136
BRANCH_CONDITIONAL: 14.4871
BRANCH_DIRECT_CALL: 5e-06
BRANCH_INDIRECT_CALL: 0.00188
BRANCH_RETURN: 5e-06

***************** Done with 657.xz_s-3167B.champsimtrace.xz using spp-dev, on Thu Apr 14 23:30:59 CDT 2022 ******************
