Started running file 607.cactuBSSN_s-2421B.champsimtrace.xz at time Thu Apr 14 17:39:39 CDT 2022 with prefetcher spp-dev

*** ChampSim Multicore Out-of-Order Simulator ***

Warmup Instructions: 200000000
Simulation Instructions: 1000000000
Number of CPUs: 1
Off-chip DRAM Size: 4 GiB Channels: 1 Width: 64-bit Data Rate: 3200 MT/s

VirtualMemory physical capacity: 8588881920 num_ppages: 2096895
VirtualMemory page size: 4096 log2_page_size: 12

CPU 0 runs /home/faculty/p/pgratz/dpc3_traces/607.cactuBSSN_s-2421B.champsimtrace.xz
CPU 0 Bimodal branch predictor
Basic BTB sets: 1024 ways: 8 indirect buffer size: 4096 RAS size: 64
SPP-DEV original prefetcher
Heartbeat CPU 0 instructions: 10000001 cycles: 3699684 heartbeat IPC: 2.70293 cumulative IPC: 2.70293 (Simulation time: 0 hr 0 min 57 sec) 
Heartbeat CPU 0 instructions: 20000004 cycles: 7398133 heartbeat IPC: 2.70384 cumulative IPC: 2.70339 (Simulation time: 0 hr 1 min 53 sec) 
Heartbeat CPU 0 instructions: 30000002 cycles: 11097706 heartbeat IPC: 2.70301 cumulative IPC: 2.70326 (Simulation time: 0 hr 2 min 50 sec) 
Heartbeat CPU 0 instructions: 40000002 cycles: 14797272 heartbeat IPC: 2.70302 cumulative IPC: 2.7032 (Simulation time: 0 hr 3 min 46 sec) 
Heartbeat CPU 0 instructions: 50000003 cycles: 18496880 heartbeat IPC: 2.70299 cumulative IPC: 2.70316 (Simulation time: 0 hr 4 min 43 sec) 
Heartbeat CPU 0 instructions: 60000003 cycles: 21394931 heartbeat IPC: 3.45059 cumulative IPC: 2.8044 (Simulation time: 0 hr 5 min 28 sec) 
Heartbeat CPU 0 instructions: 70000000 cycles: 24110731 heartbeat IPC: 3.68216 cumulative IPC: 2.90327 (Simulation time: 0 hr 6 min 10 sec) 
Heartbeat CPU 0 instructions: 80000004 cycles: 26826453 heartbeat IPC: 3.68226 cumulative IPC: 2.98213 (Simulation time: 0 hr 6 min 52 sec) 
Heartbeat CPU 0 instructions: 90000003 cycles: 29542177 heartbeat IPC: 3.68226 cumulative IPC: 3.04649 (Simulation time: 0 hr 7 min 34 sec) 
Heartbeat CPU 0 instructions: 100000000 cycles: 32257930 heartbeat IPC: 3.68222 cumulative IPC: 3.10001 (Simulation time: 0 hr 8 min 16 sec) 
Heartbeat CPU 0 instructions: 110000000 cycles: 34973696 heartbeat IPC: 3.6822 cumulative IPC: 3.14522 (Simulation time: 0 hr 8 min 58 sec) 
Heartbeat CPU 0 instructions: 120000000 cycles: 37689466 heartbeat IPC: 3.6822 cumulative IPC: 3.18391 (Simulation time: 0 hr 9 min 40 sec) 
Heartbeat CPU 0 instructions: 130000001 cycles: 40405191 heartbeat IPC: 3.68226 cumulative IPC: 3.21741 (Simulation time: 0 hr 10 min 23 sec) 
Heartbeat CPU 0 instructions: 140000003 cycles: 43120917 heartbeat IPC: 3.68226 cumulative IPC: 3.24668 (Simulation time: 0 hr 11 min 4 sec) 
Heartbeat CPU 0 instructions: 150000003 cycles: 45836687 heartbeat IPC: 3.6822 cumulative IPC: 3.27249 (Simulation time: 0 hr 11 min 47 sec) 
Heartbeat CPU 0 instructions: 160000002 cycles: 48552494 heartbeat IPC: 3.68215 cumulative IPC: 3.2954 (Simulation time: 0 hr 12 min 28 sec) 
Heartbeat CPU 0 instructions: 170000004 cycles: 51268204 heartbeat IPC: 3.68228 cumulative IPC: 3.3159 (Simulation time: 0 hr 13 min 11 sec) 
Heartbeat CPU 0 instructions: 180000001 cycles: 53983925 heartbeat IPC: 3.68226 cumulative IPC: 3.33433 (Simulation time: 0 hr 13 min 53 sec) 
Heartbeat CPU 0 instructions: 190000003 cycles: 56699686 heartbeat IPC: 3.68221 cumulative IPC: 3.35099 (Simulation time: 0 hr 14 min 35 sec) 
Heartbeat CPU 0 instructions: 200000001 cycles: 59415458 heartbeat IPC: 3.68219 cumulative IPC: 3.36613 (Simulation time: 0 hr 15 min 17 sec) 

Warmup complete CPU 0 instructions: 200000001 cycles: 59415458 (Simulation time: 0 hr 15 min 17 sec) 

Heartbeat CPU 0 instructions: 210000002 cycles: 67024795 heartbeat IPC: 1.31418 cumulative IPC: 1.31418 (Simulation time: 0 hr 16 min 26 sec) 
Heartbeat CPU 0 instructions: 220000001 cycles: 74547950 heartbeat IPC: 1.32923 cumulative IPC: 1.32166 (Simulation time: 0 hr 17 min 35 sec) 
Heartbeat CPU 0 instructions: 230000003 cycles: 82058930 heartbeat IPC: 1.33138 cumulative IPC: 1.32489 (Simulation time: 0 hr 18 min 44 sec) 
Heartbeat CPU 0 instructions: 240000001 cycles: 90068596 heartbeat IPC: 1.24849 cumulative IPC: 1.30492 (Simulation time: 0 hr 19 min 56 sec) 
Heartbeat CPU 0 instructions: 250000003 cycles: 97618824 heartbeat IPC: 1.32446 cumulative IPC: 1.30879 (Simulation time: 0 hr 21 min 4 sec) 
Heartbeat CPU 0 instructions: 260000000 cycles: 105267441 heartbeat IPC: 1.30743 cumulative IPC: 1.30856 (Simulation time: 0 hr 22 min 14 sec) 
Heartbeat CPU 0 instructions: 270000000 cycles: 112779211 heartbeat IPC: 1.33124 cumulative IPC: 1.31175 (Simulation time: 0 hr 23 min 23 sec) 
Heartbeat CPU 0 instructions: 280000004 cycles: 120253975 heartbeat IPC: 1.33784 cumulative IPC: 1.31496 (Simulation time: 0 hr 24 min 31 sec) 
Heartbeat CPU 0 instructions: 290000003 cycles: 127743481 heartbeat IPC: 1.3352 cumulative IPC: 1.31718 (Simulation time: 0 hr 25 min 41 sec) 
Heartbeat CPU 0 instructions: 300000001 cycles: 135248571 heartbeat IPC: 1.33243 cumulative IPC: 1.31869 (Simulation time: 0 hr 26 min 50 sec) 
Heartbeat CPU 0 instructions: 310000001 cycles: 142847188 heartbeat IPC: 1.31603 cumulative IPC: 1.31844 (Simulation time: 0 hr 27 min 59 sec) 
Heartbeat CPU 0 instructions: 320000003 cycles: 150401471 heartbeat IPC: 1.32375 cumulative IPC: 1.31888 (Simulation time: 0 hr 29 min 8 sec) 
Heartbeat CPU 0 instructions: 330000003 cycles: 158017560 heartbeat IPC: 1.31301 cumulative IPC: 1.31843 (Simulation time: 0 hr 30 min 18 sec) 
Heartbeat CPU 0 instructions: 340000001 cycles: 165972518 heartbeat IPC: 1.25708 cumulative IPC: 1.31385 (Simulation time: 0 hr 31 min 29 sec) 
Heartbeat CPU 0 instructions: 350000001 cycles: 173492178 heartbeat IPC: 1.32985 cumulative IPC: 1.3149 (Simulation time: 0 hr 32 min 38 sec) 
Heartbeat CPU 0 instructions: 360000004 cycles: 181003231 heartbeat IPC: 1.33137 cumulative IPC: 1.31592 (Simulation time: 0 hr 33 min 47 sec) 
Heartbeat CPU 0 instructions: 370000004 cycles: 188532404 heartbeat IPC: 1.32817 cumulative IPC: 1.31664 (Simulation time: 0 hr 34 min 56 sec) 
Heartbeat CPU 0 instructions: 380000003 cycles: 196037591 heartbeat IPC: 1.33241 cumulative IPC: 1.3175 (Simulation time: 0 hr 36 min 4 sec) 
Heartbeat CPU 0 instructions: 390000002 cycles: 203534158 heartbeat IPC: 1.33394 cumulative IPC: 1.31836 (Simulation time: 0 hr 37 min 13 sec) 
Heartbeat CPU 0 instructions: 400000004 cycles: 211186782 heartbeat IPC: 1.30674 cumulative IPC: 1.31777 (Simulation time: 0 hr 38 min 23 sec) 
Heartbeat CPU 0 instructions: 410000000 cycles: 218863715 heartbeat IPC: 1.3026 cumulative IPC: 1.31704 (Simulation time: 0 hr 39 min 33 sec) 
Heartbeat CPU 0 instructions: 420000002 cycles: 226454193 heartbeat IPC: 1.31744 cumulative IPC: 1.31706 (Simulation time: 0 hr 40 min 42 sec) 
Heartbeat CPU 0 instructions: 430000003 cycles: 234456003 heartbeat IPC: 1.24972 cumulative IPC: 1.31398 (Simulation time: 0 hr 41 min 53 sec) 
Heartbeat CPU 0 instructions: 440000004 cycles: 242037433 heartbeat IPC: 1.31901 cumulative IPC: 1.31419 (Simulation time: 0 hr 43 min 2 sec) 
Heartbeat CPU 0 instructions: 450000003 cycles: 249499005 heartbeat IPC: 1.3402 cumulative IPC: 1.31521 (Simulation time: 0 hr 44 min 11 sec) 
Heartbeat CPU 0 instructions: 460000002 cycles: 257099082 heartbeat IPC: 1.31578 cumulative IPC: 1.31523 (Simulation time: 0 hr 45 min 21 sec) 
Heartbeat CPU 0 instructions: 470000002 cycles: 264514092 heartbeat IPC: 1.34862 cumulative IPC: 1.31644 (Simulation time: 0 hr 46 min 28 sec) 
Heartbeat CPU 0 instructions: 480000004 cycles: 272004675 heartbeat IPC: 1.33501 cumulative IPC: 1.31709 (Simulation time: 0 hr 47 min 37 sec) 
Heartbeat CPU 0 instructions: 490000004 cycles: 279510603 heartbeat IPC: 1.33228 cumulative IPC: 1.31761 (Simulation time: 0 hr 48 min 46 sec) 
Heartbeat CPU 0 instructions: 500000001 cycles: 287009415 heartbeat IPC: 1.33354 cumulative IPC: 1.31814 (Simulation time: 0 hr 49 min 55 sec) 
Heartbeat CPU 0 instructions: 510000001 cycles: 294538380 heartbeat IPC: 1.3282 cumulative IPC: 1.31846 (Simulation time: 0 hr 51 min 3 sec) 
Heartbeat CPU 0 instructions: 520000000 cycles: 302640521 heartbeat IPC: 1.23424 cumulative IPC: 1.31565 (Simulation time: 0 hr 52 min 15 sec) 
Heartbeat CPU 0 instructions: 530000004 cycles: 310181519 heartbeat IPC: 1.32608 cumulative IPC: 1.31597 (Simulation time: 0 hr 53 min 24 sec) 
Heartbeat CPU 0 instructions: 540000001 cycles: 317730596 heartbeat IPC: 1.32466 cumulative IPC: 1.31622 (Simulation time: 0 hr 54 min 34 sec) 
Heartbeat CPU 0 instructions: 550000002 cycles: 325229953 heartbeat IPC: 1.33345 cumulative IPC: 1.31671 (Simulation time: 0 hr 55 min 42 sec) 
Heartbeat CPU 0 instructions: 560000002 cycles: 332807049 heartbeat IPC: 1.31977 cumulative IPC: 1.31679 (Simulation time: 0 hr 56 min 52 sec) 
Heartbeat CPU 0 instructions: 570000004 cycles: 340335283 heartbeat IPC: 1.32833 cumulative IPC: 1.3171 (Simulation time: 0 hr 58 min 1 sec) 
Heartbeat CPU 0 instructions: 580000004 cycles: 347775691 heartbeat IPC: 1.34401 cumulative IPC: 1.3178 (Simulation time: 0 hr 59 min 10 sec) 
Heartbeat CPU 0 instructions: 590000002 cycles: 355330153 heartbeat IPC: 1.32372 cumulative IPC: 1.31795 (Simulation time: 1 hr 0 min 19 sec) 
Heartbeat CPU 0 instructions: 600000000 cycles: 362916560 heartbeat IPC: 1.31815 cumulative IPC: 1.31795 (Simulation time: 1 hr 1 min 28 sec) 
Heartbeat CPU 0 instructions: 610000004 cycles: 370469176 heartbeat IPC: 1.32405 cumulative IPC: 1.3181 (Simulation time: 1 hr 2 min 37 sec) 
Heartbeat CPU 0 instructions: 620000000 cycles: 378478056 heartbeat IPC: 1.24861 cumulative IPC: 1.31636 (Simulation time: 1 hr 3 min 48 sec) 
Heartbeat CPU 0 instructions: 630000002 cycles: 386093016 heartbeat IPC: 1.3132 cumulative IPC: 1.31628 (Simulation time: 1 hr 4 min 57 sec) 
Heartbeat CPU 0 instructions: 640000001 cycles: 393625942 heartbeat IPC: 1.32751 cumulative IPC: 1.31654 (Simulation time: 1 hr 6 min 6 sec) 
Heartbeat CPU 0 instructions: 650000001 cycles: 401140121 heartbeat IPC: 1.33082 cumulative IPC: 1.31685 (Simulation time: 1 hr 7 min 15 sec) 
Heartbeat CPU 0 instructions: 660000000 cycles: 408587335 heartbeat IPC: 1.34278 cumulative IPC: 1.3174 (Simulation time: 1 hr 8 min 23 sec) 
Heartbeat CPU 0 instructions: 670000002 cycles: 416090886 heartbeat IPC: 1.3327 cumulative IPC: 1.31772 (Simulation time: 1 hr 9 min 32 sec) 
Heartbeat CPU 0 instructions: 680000000 cycles: 423606590 heartbeat IPC: 1.33055 cumulative IPC: 1.31799 (Simulation time: 1 hr 10 min 40 sec) 
Heartbeat CPU 0 instructions: 690000000 cycles: 431114690 heartbeat IPC: 1.33189 cumulative IPC: 1.31827 (Simulation time: 1 hr 11 min 49 sec) 
Heartbeat CPU 0 instructions: 700000001 cycles: 438600222 heartbeat IPC: 1.33591 cumulative IPC: 1.31862 (Simulation time: 1 hr 12 min 57 sec) 
Heartbeat CPU 0 instructions: 710000004 cycles: 446543155 heartbeat IPC: 1.25898 cumulative IPC: 1.31739 (Simulation time: 1 hr 14 min 8 sec) 
Heartbeat CPU 0 instructions: 720000003 cycles: 454065748 heartbeat IPC: 1.32933 cumulative IPC: 1.31762 (Simulation time: 1 hr 15 min 17 sec) 
Heartbeat CPU 0 instructions: 730000000 cycles: 461578607 heartbeat IPC: 1.33105 cumulative IPC: 1.31787 (Simulation time: 1 hr 16 min 25 sec) 
Heartbeat CPU 0 instructions: 740000004 cycles: 469092360 heartbeat IPC: 1.33089 cumulative IPC: 1.31811 (Simulation time: 1 hr 17 min 34 sec) 
Heartbeat CPU 0 instructions: 750000000 cycles: 476686404 heartbeat IPC: 1.31682 cumulative IPC: 1.31809 (Simulation time: 1 hr 18 min 43 sec) 
Heartbeat CPU 0 instructions: 760000000 cycles: 484283593 heartbeat IPC: 1.31628 cumulative IPC: 1.31806 (Simulation time: 1 hr 19 min 52 sec) 
Heartbeat CPU 0 instructions: 770000002 cycles: 491840670 heartbeat IPC: 1.32326 cumulative IPC: 1.31815 (Simulation time: 1 hr 21 min 2 sec) 
Heartbeat CPU 0 instructions: 780000003 cycles: 499420233 heartbeat IPC: 1.31934 cumulative IPC: 1.31817 (Simulation time: 1 hr 22 min 10 sec) 
Heartbeat CPU 0 instructions: 790000003 cycles: 506998912 heartbeat IPC: 1.31949 cumulative IPC: 1.31819 (Simulation time: 1 hr 23 min 20 sec) 
Heartbeat CPU 0 instructions: 800000002 cycles: 514819495 heartbeat IPC: 1.27868 cumulative IPC: 1.31751 (Simulation time: 1 hr 24 min 30 sec) 
Heartbeat CPU 0 instructions: 810000001 cycles: 522339341 heartbeat IPC: 1.32981 cumulative IPC: 1.31771 (Simulation time: 1 hr 25 min 39 sec) 
Heartbeat CPU 0 instructions: 820000004 cycles: 529892232 heartbeat IPC: 1.324 cumulative IPC: 1.31781 (Simulation time: 1 hr 26 min 48 sec) 
Heartbeat CPU 0 instructions: 830000001 cycles: 537419514 heartbeat IPC: 1.3285 cumulative IPC: 1.31798 (Simulation time: 1 hr 27 min 57 sec) 
Heartbeat CPU 0 instructions: 840000001 cycles: 544917915 heartbeat IPC: 1.33362 cumulative IPC: 1.31822 (Simulation time: 1 hr 29 min 6 sec) 
Heartbeat CPU 0 instructions: 850000000 cycles: 552427509 heartbeat IPC: 1.33163 cumulative IPC: 1.31843 (Simulation time: 1 hr 30 min 15 sec) 
Heartbeat CPU 0 instructions: 860000004 cycles: 560060709 heartbeat IPC: 1.31007 cumulative IPC: 1.3183 (Simulation time: 1 hr 31 min 24 sec) 
Heartbeat CPU 0 instructions: 870000004 cycles: 567587223 heartbeat IPC: 1.32864 cumulative IPC: 1.31845 (Simulation time: 1 hr 32 min 34 sec) 
Heartbeat CPU 0 instructions: 880000001 cycles: 575118051 heartbeat IPC: 1.32787 cumulative IPC: 1.31859 (Simulation time: 1 hr 33 min 43 sec) 
Heartbeat CPU 0 instructions: 890000003 cycles: 582612598 heartbeat IPC: 1.3343 cumulative IPC: 1.31881 (Simulation time: 1 hr 34 min 52 sec) 
Heartbeat CPU 0 instructions: 900000003 cycles: 590612148 heartbeat IPC: 1.25007 cumulative IPC: 1.31778 (Simulation time: 1 hr 36 min 3 sec) 
Heartbeat CPU 0 instructions: 910000000 cycles: 598165291 heartbeat IPC: 1.32395 cumulative IPC: 1.31787 (Simulation time: 1 hr 37 min 12 sec) 
Heartbeat CPU 0 instructions: 920000002 cycles: 605645298 heartbeat IPC: 1.3369 cumulative IPC: 1.31813 (Simulation time: 1 hr 38 min 21 sec) 
Heartbeat CPU 0 instructions: 930000003 cycles: 613117172 heartbeat IPC: 1.33835 cumulative IPC: 1.3184 (Simulation time: 1 hr 39 min 30 sec) 
Heartbeat CPU 0 instructions: 940000000 cycles: 620608048 heartbeat IPC: 1.33496 cumulative IPC: 1.31862 (Simulation time: 1 hr 40 min 38 sec) 
Heartbeat CPU 0 instructions: 950000003 cycles: 628172074 heartbeat IPC: 1.32205 cumulative IPC: 1.31867 (Simulation time: 1 hr 41 min 48 sec) 
Heartbeat CPU 0 instructions: 960000001 cycles: 635824621 heartbeat IPC: 1.30675 cumulative IPC: 1.31851 (Simulation time: 1 hr 42 min 57 sec) 
Heartbeat CPU 0 instructions: 970000000 cycles: 643321479 heartbeat IPC: 1.33389 cumulative IPC: 1.31871 (Simulation time: 1 hr 44 min 6 sec) 
Heartbeat CPU 0 instructions: 980000001 cycles: 650861963 heartbeat IPC: 1.32617 cumulative IPC: 1.3188 (Simulation time: 1 hr 45 min 15 sec) 
Heartbeat CPU 0 instructions: 990000000 cycles: 658821848 heartbeat IPC: 1.2563 cumulative IPC: 1.31797 (Simulation time: 1 hr 46 min 26 sec) 
Heartbeat CPU 0 instructions: 1000000001 cycles: 666312146 heartbeat IPC: 1.33506 cumulative IPC: 1.31818 (Simulation time: 1 hr 47 min 34 sec) 
Heartbeat CPU 0 instructions: 1010000001 cycles: 673803452 heartbeat IPC: 1.33488 cumulative IPC: 1.31839 (Simulation time: 1 hr 48 min 43 sec) 
Heartbeat CPU 0 instructions: 1020000003 cycles: 681303456 heartbeat IPC: 1.33333 cumulative IPC: 1.31857 (Simulation time: 1 hr 49 min 52 sec) 
Heartbeat CPU 0 instructions: 1030000000 cycles: 688767165 heartbeat IPC: 1.33982 cumulative IPC: 1.31882 (Simulation time: 1 hr 51 min 0 sec) 
Heartbeat CPU 0 instructions: 1040000002 cycles: 696358779 heartbeat IPC: 1.31724 cumulative IPC: 1.3188 (Simulation time: 1 hr 52 min 9 sec) 
Heartbeat CPU 0 instructions: 1050000002 cycles: 703917881 heartbeat IPC: 1.32291 cumulative IPC: 1.31885 (Simulation time: 1 hr 53 min 18 sec) 
Heartbeat CPU 0 instructions: 1060000003 cycles: 711420028 heartbeat IPC: 1.33295 cumulative IPC: 1.31901 (Simulation time: 1 hr 54 min 27 sec) 
Heartbeat CPU 0 instructions: 1070000001 cycles: 718996683 heartbeat IPC: 1.31984 cumulative IPC: 1.31902 (Simulation time: 1 hr 55 min 36 sec) 
Heartbeat CPU 0 instructions: 1080000001 cycles: 727027623 heartbeat IPC: 1.24518 cumulative IPC: 1.31813 (Simulation time: 1 hr 56 min 48 sec) 
Heartbeat CPU 0 instructions: 1090000002 cycles: 734515089 heartbeat IPC: 1.33557 cumulative IPC: 1.31832 (Simulation time: 1 hr 57 min 56 sec) 
Heartbeat CPU 0 instructions: 1100000002 cycles: 742193618 heartbeat IPC: 1.30233 cumulative IPC: 1.31814 (Simulation time: 1 hr 59 min 6 sec) 
Heartbeat CPU 0 instructions: 1110000001 cycles: 749681982 heartbeat IPC: 1.3354 cumulative IPC: 1.31833 (Simulation time: 2 hr 0 min 14 sec) 
Heartbeat CPU 0 instructions: 1120000000 cycles: 757271886 heartbeat IPC: 1.31754 cumulative IPC: 1.31832 (Simulation time: 2 hr 1 min 24 sec) 
Heartbeat CPU 0 instructions: 1130000001 cycles: 764724370 heartbeat IPC: 1.34183 cumulative IPC: 1.31857 (Simulation time: 2 hr 2 min 32 sec) 
Heartbeat CPU 0 instructions: 1140000001 cycles: 772184590 heartbeat IPC: 1.34044 cumulative IPC: 1.3188 (Simulation time: 2 hr 3 min 40 sec) 
Heartbeat CPU 0 instructions: 1150000003 cycles: 779814903 heartbeat IPC: 1.31056 cumulative IPC: 1.31871 (Simulation time: 2 hr 4 min 50 sec) 
Heartbeat CPU 0 instructions: 1160000004 cycles: 787332091 heartbeat IPC: 1.33028 cumulative IPC: 1.31883 (Simulation time: 2 hr 5 min 59 sec) 
Heartbeat CPU 0 instructions: 1170000001 cycles: 794828866 heartbeat IPC: 1.33391 cumulative IPC: 1.31899 (Simulation time: 2 hr 7 min 7 sec) 
Heartbeat CPU 0 instructions: 1180000001 cycles: 802741224 heartbeat IPC: 1.26385 cumulative IPC: 1.3184 (Simulation time: 2 hr 8 min 18 sec) 
Heartbeat CPU 0 instructions: 1190000004 cycles: 810223239 heartbeat IPC: 1.33654 cumulative IPC: 1.31858 (Simulation time: 2 hr 9 min 27 sec) 
Heartbeat CPU 0 instructions: 1200000001 cycles: 817764417 heartbeat IPC: 1.32605 cumulative IPC: 1.31865 (Simulation time: 2 hr 10 min 36 sec) 
Finished CPU 0 instructions: 1000000000 cycles: 758348959 cumulative IPC: 1.31865 (Simulation time: 2 hr 10 min 36 sec) 

ChampSim completed all CPUs

Region of Interest Statistics

CPU 0 cumulative IPC: 1.31865 instructions: 1000000000 cycles: 758348959
cpu0_DTLB TOTAL     ACCESS:  177882730  HIT:  102482656  MISS:   75400074
cpu0_DTLB LOAD      ACCESS:  125789744  HIT:   52115968  MISS:   73673776
cpu0_DTLB RFO       ACCESS:   52092986  HIT:   50366688  MISS:    1726298
cpu0_DTLB PREFETCH  ACCESS:          0  HIT:          0  MISS:          0
cpu0_DTLB WRITEBACK ACCESS:          0  HIT:          0  MISS:          0
cpu0_DTLB TRANSLATION ACCESS:          0  HIT:          0  MISS:          0
cpu0_DTLB PREFETCH  REQUESTED:          0  ISSUED:          0  USEFUL:          0  USELESS:          0
cpu0_DTLB AVERAGE MISS LATENCY: 11.6113 cycles
cpu0_ITLB TOTAL     ACCESS:   19156189  HIT:   19156189  MISS:          0
cpu0_ITLB LOAD      ACCESS:   19156189  HIT:   19156189  MISS:          0
cpu0_ITLB RFO       ACCESS:          0  HIT:          0  MISS:          0
cpu0_ITLB PREFETCH  ACCESS:          0  HIT:          0  MISS:          0
cpu0_ITLB WRITEBACK ACCESS:          0  HIT:          0  MISS:          0
cpu0_ITLB TRANSLATION ACCESS:          0  HIT:          0  MISS:          0
cpu0_ITLB PREFETCH  REQUESTED:          0  ISSUED:          0  USEFUL:          0  USELESS:          0
cpu0_ITLB AVERAGE MISS LATENCY: -nan cycles
cpu0_L1I TOTAL     ACCESS:  100471624  HIT:  100471624  MISS:          0
cpu0_L1I LOAD      ACCESS:  100471624  HIT:  100471624  MISS:          0
cpu0_L1I RFO       ACCESS:          0  HIT:          0  MISS:          0
cpu0_L1I PREFETCH  ACCESS:          0  HIT:          0  MISS:          0
cpu0_L1I WRITEBACK ACCESS:          0  HIT:          0  MISS:          0
cpu0_L1I TRANSLATION ACCESS:          0  HIT:          0  MISS:          0
cpu0_L1I PREFETCH  REQUESTED:          0  ISSUED:          0  USEFUL:          0  USELESS:          0
cpu0_L1I AVERAGE MISS LATENCY: -nan cycles
cpu0_STLB TOTAL     ACCESS:   75400074  HIT:   75278957  MISS:     121117
cpu0_STLB LOAD      ACCESS:   73673776  HIT:   73552659  MISS:     121117
cpu0_STLB RFO       ACCESS:    1726298  HIT:    1726298  MISS:          0
cpu0_STLB PREFETCH  ACCESS:          0  HIT:          0  MISS:          0
cpu0_STLB WRITEBACK ACCESS:          0  HIT:          0  MISS:          0
cpu0_STLB TRANSLATION ACCESS:          0  HIT:          0  MISS:          0
cpu0_STLB PREFETCH  REQUESTED:          0  ISSUED:          0  USEFUL:          0  USELESS:          0
cpu0_STLB AVERAGE MISS LATENCY: 134.277 cycles
cpu0_L1D TOTAL     ACCESS:  280197621  HIT:  164905546  MISS:  115292075
cpu0_L1D LOAD      ACCESS:  168093900  HIT:   57821531  MISS:  110272369
cpu0_L1D RFO       ACCESS:  111983972  HIT:  107071612  MISS:    4912360
cpu0_L1D PREFETCH  ACCESS:          0  HIT:          0  MISS:          0
cpu0_L1D WRITEBACK ACCESS:          0  HIT:          0  MISS:          0
cpu0_L1D TRANSLATION ACCESS:     119749  HIT:      12403  MISS:     107346
cpu0_L1D PREFETCH  REQUESTED:          0  ISSUED:          0  USEFUL:          0  USELESS:          0
cpu0_L1D AVERAGE MISS LATENCY: 32.8264 cycles
cpu0_L2C TOTAL     ACCESS:  158988038  HIT:  145824813  MISS:   13163225
cpu0_L2C LOAD      ACCESS:  110258279  HIT:  100472389  MISS:    9785890
cpu0_L2C RFO       ACCESS:    4898872  HIT:    4783616  MISS:     115256
cpu0_L2C PREFETCH  ACCESS:   36874113  HIT:   33647599  MISS:    3226514
cpu0_L2C WRITEBACK ACCESS:    6849428  HIT:    6848732  MISS:        696
cpu0_L2C TRANSLATION ACCESS:     107346  HIT:      72477  MISS:      34869
cpu0_L2C PREFETCH  REQUESTED:  114809768  ISSUED:   75602511  USEFUL:    3065321  USELESS:     182163
cpu0_L2C AVERAGE MISS LATENCY: 280.625 cycles
LLC TOTAL     ACCESS:   50413452  HIT:   42565639  MISS:    7847813
LLC LOAD      ACCESS:    9743643  HIT:    8339921  MISS:    1403722
LLC RFO       ACCESS:     111274  HIT:     111274  MISS:          0
LLC PREFETCH  ACCESS:   39327190  HIT:   32888128  MISS:    6439062
LLC WRITEBACK ACCESS:    1196476  HIT:    1194195  MISS:       2281
LLC TRANSLATION ACCESS:      34869  HIT:      32121  MISS:       2748
LLC PREFETCH  REQUESTED:          0  ISSUED:          0  USEFUL:          0  USELESS:          0
LLC AVERAGE MISS LATENCY: 1775.33 cycles

DRAM Statistics
 CHANNEL 0
 RQ ROW_BUFFER_HIT:       5099  ROW_BUFFER_MISS:    7839947
 DBUS AVG_CONGESTED_CYCLE:    3.99902
 WQ ROW_BUFFER_HIT:      21282  ROW_BUFFER_MISS:     935340  FULL:          0


CPU 0 Branch Prediction Accuracy: 99.6984% MPKI: 0.003576 Average ROB Occupancy at Mispredict: 343.335
Branch type MPKI
BRANCH_DIRECT_JUMP: 0
BRANCH_INDIRECT: 0
BRANCH_CONDITIONAL: 0.003576
BRANCH_DIRECT_CALL: 0
BRANCH_INDIRECT_CALL: 0
BRANCH_RETURN: 0

***************** Done with 607.cactuBSSN_s-2421B.champsimtrace.xz using spp-dev, on Thu Apr 14 19:50:15 CDT 2022 ******************
