Started running file 638.imagick_s-10316B.champsimtrace.xz at time Mon Apr 18 15:32:34 CDT 2022 with prefetcher spp-dev-agg

*** ChampSim Multicore Out-of-Order Simulator ***

Warmup Instructions: 200000000
Simulation Instructions: 1000000000
Number of CPUs: 1
Off-chip DRAM Size: 4 GiB Channels: 1 Width: 64-bit Data Rate: 3200 MT/s

VirtualMemory physical capacity: 8588881920 num_ppages: 2096895
VirtualMemory page size: 4096 log2_page_size: 12

CPU 0 runs /home/faculty/p/pgratz/dpc3_traces/638.imagick_s-10316B.champsimtrace.xz
CPU 0 Bimodal branch predictor
Basic BTB sets: 1024 ways: 8 indirect buffer size: 4096 RAS size: 64
SPP-DEV original prefetcher
Heartbeat CPU 0 instructions: 10000002 cycles: 2500064 heartbeat IPC: 3.9999 cumulative IPC: 3.9999 (Simulation time: 0 hr 0 min 25 sec) 
Heartbeat CPU 0 instructions: 20000002 cycles: 5000064 heartbeat IPC: 4 cumulative IPC: 3.99995 (Simulation time: 0 hr 0 min 51 sec) 
Heartbeat CPU 0 instructions: 30000002 cycles: 7500064 heartbeat IPC: 4 cumulative IPC: 3.99997 (Simulation time: 0 hr 1 min 17 sec) 
Heartbeat CPU 0 instructions: 40000002 cycles: 10000064 heartbeat IPC: 4 cumulative IPC: 3.99997 (Simulation time: 0 hr 1 min 42 sec) 
Heartbeat CPU 0 instructions: 50000002 cycles: 12500064 heartbeat IPC: 4 cumulative IPC: 3.99998 (Simulation time: 0 hr 2 min 8 sec) 
Heartbeat CPU 0 instructions: 60000002 cycles: 15000064 heartbeat IPC: 4 cumulative IPC: 3.99998 (Simulation time: 0 hr 2 min 34 sec) 
Heartbeat CPU 0 instructions: 70000002 cycles: 17500064 heartbeat IPC: 4 cumulative IPC: 3.99999 (Simulation time: 0 hr 3 min 0 sec) 
Heartbeat CPU 0 instructions: 80000002 cycles: 20000064 heartbeat IPC: 4 cumulative IPC: 3.99999 (Simulation time: 0 hr 3 min 25 sec) 
Heartbeat CPU 0 instructions: 90000002 cycles: 22500064 heartbeat IPC: 4 cumulative IPC: 3.99999 (Simulation time: 0 hr 3 min 51 sec) 
Heartbeat CPU 0 instructions: 100000002 cycles: 25000064 heartbeat IPC: 4 cumulative IPC: 3.99999 (Simulation time: 0 hr 4 min 16 sec) 
Heartbeat CPU 0 instructions: 110000002 cycles: 27500064 heartbeat IPC: 4 cumulative IPC: 3.99999 (Simulation time: 0 hr 4 min 41 sec) 
Heartbeat CPU 0 instructions: 120000002 cycles: 30000064 heartbeat IPC: 4 cumulative IPC: 3.99999 (Simulation time: 0 hr 5 min 6 sec) 
Heartbeat CPU 0 instructions: 130000002 cycles: 32500064 heartbeat IPC: 4 cumulative IPC: 3.99999 (Simulation time: 0 hr 5 min 31 sec) 
Heartbeat CPU 0 instructions: 140000002 cycles: 35000064 heartbeat IPC: 4 cumulative IPC: 3.99999 (Simulation time: 0 hr 5 min 57 sec) 
Heartbeat CPU 0 instructions: 150000002 cycles: 37500064 heartbeat IPC: 4 cumulative IPC: 3.99999 (Simulation time: 0 hr 6 min 22 sec) 
Heartbeat CPU 0 instructions: 160000002 cycles: 40000064 heartbeat IPC: 4 cumulative IPC: 3.99999 (Simulation time: 0 hr 6 min 47 sec) 
Heartbeat CPU 0 instructions: 170000002 cycles: 42500064 heartbeat IPC: 4 cumulative IPC: 3.99999 (Simulation time: 0 hr 7 min 12 sec) 
Heartbeat CPU 0 instructions: 180000002 cycles: 45000064 heartbeat IPC: 4 cumulative IPC: 3.99999 (Simulation time: 0 hr 7 min 38 sec) 
Heartbeat CPU 0 instructions: 190000002 cycles: 47500064 heartbeat IPC: 4 cumulative IPC: 3.99999 (Simulation time: 0 hr 8 min 3 sec) 
Heartbeat CPU 0 instructions: 200000002 cycles: 50000064 heartbeat IPC: 4 cumulative IPC: 3.99999 (Simulation time: 0 hr 8 min 28 sec) 

Warmup complete CPU 0 instructions: 200000002 cycles: 50000064 (Simulation time: 0 hr 8 min 28 sec) 

Heartbeat CPU 0 instructions: 210000000 cycles: 53414905 heartbeat IPC: 2.92839 cumulative IPC: 2.92839 (Simulation time: 0 hr 8 min 55 sec) 
Heartbeat CPU 0 instructions: 220000004 cycles: 56831218 heartbeat IPC: 2.92713 cumulative IPC: 2.92776 (Simulation time: 0 hr 9 min 22 sec) 
Heartbeat CPU 0 instructions: 230000004 cycles: 60246118 heartbeat IPC: 2.92834 cumulative IPC: 2.92796 (Simulation time: 0 hr 9 min 49 sec) 
Heartbeat CPU 0 instructions: 240000004 cycles: 63661773 heartbeat IPC: 2.9277 cumulative IPC: 2.92789 (Simulation time: 0 hr 10 min 17 sec) 
Heartbeat CPU 0 instructions: 250000000 cycles: 67077031 heartbeat IPC: 2.92804 cumulative IPC: 2.92792 (Simulation time: 0 hr 10 min 44 sec) 
Heartbeat CPU 0 instructions: 260000001 cycles: 70493685 heartbeat IPC: 2.92684 cumulative IPC: 2.92774 (Simulation time: 0 hr 11 min 11 sec) 
Heartbeat CPU 0 instructions: 270000001 cycles: 73909154 heartbeat IPC: 2.92786 cumulative IPC: 2.92776 (Simulation time: 0 hr 11 min 38 sec) 
Heartbeat CPU 0 instructions: 280000002 cycles: 77324393 heartbeat IPC: 2.92805 cumulative IPC: 2.92779 (Simulation time: 0 hr 12 min 5 sec) 
Heartbeat CPU 0 instructions: 290000000 cycles: 80739747 heartbeat IPC: 2.92795 cumulative IPC: 2.92781 (Simulation time: 0 hr 12 min 32 sec) 
Heartbeat CPU 0 instructions: 300000002 cycles: 84154767 heartbeat IPC: 2.92824 cumulative IPC: 2.92785 (Simulation time: 0 hr 12 min 59 sec) 
Heartbeat CPU 0 instructions: 310000000 cycles: 87569384 heartbeat IPC: 2.92859 cumulative IPC: 2.92792 (Simulation time: 0 hr 13 min 26 sec) 
Heartbeat CPU 0 instructions: 320000002 cycles: 90984698 heartbeat IPC: 2.92799 cumulative IPC: 2.92793 (Simulation time: 0 hr 13 min 53 sec) 
Heartbeat CPU 0 instructions: 330000002 cycles: 94400409 heartbeat IPC: 2.92765 cumulative IPC: 2.92791 (Simulation time: 0 hr 14 min 20 sec) 
Heartbeat CPU 0 instructions: 340000002 cycles: 97815459 heartbeat IPC: 2.92821 cumulative IPC: 2.92793 (Simulation time: 0 hr 14 min 48 sec) 
Heartbeat CPU 0 instructions: 350000003 cycles: 101230441 heartbeat IPC: 2.92827 cumulative IPC: 2.92795 (Simulation time: 0 hr 15 min 15 sec) 
Heartbeat CPU 0 instructions: 360000002 cycles: 104645675 heartbeat IPC: 2.92806 cumulative IPC: 2.92796 (Simulation time: 0 hr 15 min 43 sec) 
Heartbeat CPU 0 instructions: 370000003 cycles: 108061384 heartbeat IPC: 2.92765 cumulative IPC: 2.92794 (Simulation time: 0 hr 16 min 10 sec) 
Heartbeat CPU 0 instructions: 380000004 cycles: 111475746 heartbeat IPC: 2.92881 cumulative IPC: 2.92799 (Simulation time: 0 hr 16 min 37 sec) 
Heartbeat CPU 0 instructions: 390000002 cycles: 114891796 heartbeat IPC: 2.92736 cumulative IPC: 2.92795 (Simulation time: 0 hr 17 min 4 sec) 
Heartbeat CPU 0 instructions: 400000001 cycles: 118306532 heartbeat IPC: 2.92848 cumulative IPC: 2.92798 (Simulation time: 0 hr 17 min 31 sec) 
Heartbeat CPU 0 instructions: 410000004 cycles: 121722257 heartbeat IPC: 2.92764 cumulative IPC: 2.92796 (Simulation time: 0 hr 17 min 58 sec) 
Heartbeat CPU 0 instructions: 420000003 cycles: 125136627 heartbeat IPC: 2.9288 cumulative IPC: 2.928 (Simulation time: 0 hr 18 min 25 sec) 
Heartbeat CPU 0 instructions: 430000001 cycles: 128553242 heartbeat IPC: 2.92687 cumulative IPC: 2.92795 (Simulation time: 0 hr 18 min 53 sec) 
Heartbeat CPU 0 instructions: 440000003 cycles: 131968043 heartbeat IPC: 2.92843 cumulative IPC: 2.92797 (Simulation time: 0 hr 19 min 20 sec) 
Heartbeat CPU 0 instructions: 450000002 cycles: 135384146 heartbeat IPC: 2.92731 cumulative IPC: 2.92795 (Simulation time: 0 hr 19 min 47 sec) 
Heartbeat CPU 0 instructions: 460000002 cycles: 138798208 heartbeat IPC: 2.92906 cumulative IPC: 2.92799 (Simulation time: 0 hr 20 min 14 sec) 
Heartbeat CPU 0 instructions: 470000001 cycles: 142214519 heartbeat IPC: 2.92713 cumulative IPC: 2.92796 (Simulation time: 0 hr 20 min 41 sec) 
Heartbeat CPU 0 instructions: 480000001 cycles: 145628501 heartbeat IPC: 2.92913 cumulative IPC: 2.928 (Simulation time: 0 hr 21 min 8 sec) 
Heartbeat CPU 0 instructions: 490000004 cycles: 149044849 heartbeat IPC: 2.9271 cumulative IPC: 2.92797 (Simulation time: 0 hr 21 min 35 sec) 
Heartbeat CPU 0 instructions: 500000003 cycles: 152459613 heartbeat IPC: 2.92846 cumulative IPC: 2.92798 (Simulation time: 0 hr 22 min 2 sec) 
Heartbeat CPU 0 instructions: 510000000 cycles: 155876293 heartbeat IPC: 2.92682 cumulative IPC: 2.92795 (Simulation time: 0 hr 22 min 29 sec) 
Heartbeat CPU 0 instructions: 520000000 cycles: 159290928 heartbeat IPC: 2.92857 cumulative IPC: 2.92797 (Simulation time: 0 hr 22 min 56 sec) 
Heartbeat CPU 0 instructions: 530000001 cycles: 162707844 heartbeat IPC: 2.92662 cumulative IPC: 2.92793 (Simulation time: 0 hr 23 min 23 sec) 
Heartbeat CPU 0 instructions: 540000003 cycles: 166122655 heartbeat IPC: 2.92842 cumulative IPC: 2.92794 (Simulation time: 0 hr 23 min 50 sec) 
Heartbeat CPU 0 instructions: 550000002 cycles: 169538726 heartbeat IPC: 2.92734 cumulative IPC: 2.92792 (Simulation time: 0 hr 24 min 17 sec) 
Heartbeat CPU 0 instructions: 560000002 cycles: 172954179 heartbeat IPC: 2.92787 cumulative IPC: 2.92792 (Simulation time: 0 hr 24 min 44 sec) 
Heartbeat CPU 0 instructions: 570000000 cycles: 176370968 heartbeat IPC: 2.92672 cumulative IPC: 2.92789 (Simulation time: 0 hr 25 min 10 sec) 
Heartbeat CPU 0 instructions: 580000000 cycles: 179786165 heartbeat IPC: 2.92809 cumulative IPC: 2.92789 (Simulation time: 0 hr 25 min 37 sec) 
Heartbeat CPU 0 instructions: 590000000 cycles: 183202399 heartbeat IPC: 2.9272 cumulative IPC: 2.92788 (Simulation time: 0 hr 26 min 4 sec) 
Heartbeat CPU 0 instructions: 600000002 cycles: 186617354 heartbeat IPC: 2.9283 cumulative IPC: 2.92789 (Simulation time: 0 hr 26 min 31 sec) 
Heartbeat CPU 0 instructions: 610000001 cycles: 190034128 heartbeat IPC: 2.92674 cumulative IPC: 2.92786 (Simulation time: 0 hr 26 min 58 sec) 
Heartbeat CPU 0 instructions: 620000003 cycles: 193448883 heartbeat IPC: 2.92847 cumulative IPC: 2.92787 (Simulation time: 0 hr 27 min 25 sec) 
Heartbeat CPU 0 instructions: 630000001 cycles: 196865825 heartbeat IPC: 2.92659 cumulative IPC: 2.92784 (Simulation time: 0 hr 27 min 52 sec) 
Heartbeat CPU 0 instructions: 640000001 cycles: 200281291 heartbeat IPC: 2.92786 cumulative IPC: 2.92784 (Simulation time: 0 hr 28 min 19 sec) 
Heartbeat CPU 0 instructions: 650000004 cycles: 203697957 heartbeat IPC: 2.92683 cumulative IPC: 2.92782 (Simulation time: 0 hr 28 min 46 sec) 
Heartbeat CPU 0 instructions: 660000003 cycles: 207113538 heartbeat IPC: 2.92776 cumulative IPC: 2.92782 (Simulation time: 0 hr 29 min 14 sec) 
Heartbeat CPU 0 instructions: 670000004 cycles: 210530140 heartbeat IPC: 2.92688 cumulative IPC: 2.9278 (Simulation time: 0 hr 29 min 41 sec) 
Heartbeat CPU 0 instructions: 680000001 cycles: 213945506 heartbeat IPC: 2.92794 cumulative IPC: 2.9278 (Simulation time: 0 hr 30 min 8 sec) 
Heartbeat CPU 0 instructions: 690000000 cycles: 217361043 heartbeat IPC: 2.9278 cumulative IPC: 2.9278 (Simulation time: 0 hr 30 min 35 sec) 
Heartbeat CPU 0 instructions: 700000004 cycles: 220776076 heartbeat IPC: 2.92823 cumulative IPC: 2.92781 (Simulation time: 0 hr 31 min 2 sec) 
Heartbeat CPU 0 instructions: 710000000 cycles: 224191590 heartbeat IPC: 2.92782 cumulative IPC: 2.92781 (Simulation time: 0 hr 31 min 29 sec) 
Heartbeat CPU 0 instructions: 720000000 cycles: 227606431 heartbeat IPC: 2.92839 cumulative IPC: 2.92782 (Simulation time: 0 hr 31 min 56 sec) 
Heartbeat CPU 0 instructions: 730000000 cycles: 231021947 heartbeat IPC: 2.92782 cumulative IPC: 2.92782 (Simulation time: 0 hr 32 min 23 sec) 
Heartbeat CPU 0 instructions: 740000004 cycles: 234437813 heartbeat IPC: 2.92752 cumulative IPC: 2.92782 (Simulation time: 0 hr 32 min 50 sec) 
Heartbeat CPU 0 instructions: 750000004 cycles: 237852457 heartbeat IPC: 2.92856 cumulative IPC: 2.92783 (Simulation time: 0 hr 33 min 16 sec) 
Heartbeat CPU 0 instructions: 760000003 cycles: 241268412 heartbeat IPC: 2.92744 cumulative IPC: 2.92782 (Simulation time: 0 hr 33 min 44 sec) 
Heartbeat CPU 0 instructions: 770000003 cycles: 244684570 heartbeat IPC: 2.92727 cumulative IPC: 2.92781 (Simulation time: 0 hr 34 min 11 sec) 
Heartbeat CPU 0 instructions: 780000002 cycles: 248100698 heartbeat IPC: 2.92729 cumulative IPC: 2.9278 (Simulation time: 0 hr 34 min 37 sec) 
Heartbeat CPU 0 instructions: 790000002 cycles: 251515895 heartbeat IPC: 2.92809 cumulative IPC: 2.92781 (Simulation time: 0 hr 35 min 4 sec) 
Heartbeat CPU 0 instructions: 800000001 cycles: 254931942 heartbeat IPC: 2.92736 cumulative IPC: 2.9278 (Simulation time: 0 hr 35 min 31 sec) 
Heartbeat CPU 0 instructions: 810000004 cycles: 258346539 heartbeat IPC: 2.9286 cumulative IPC: 2.92782 (Simulation time: 0 hr 35 min 58 sec) 
Heartbeat CPU 0 instructions: 820000003 cycles: 261762585 heartbeat IPC: 2.92736 cumulative IPC: 2.92781 (Simulation time: 0 hr 36 min 25 sec) 
Heartbeat CPU 0 instructions: 830000001 cycles: 265176351 heartbeat IPC: 2.92932 cumulative IPC: 2.92783 (Simulation time: 0 hr 36 min 52 sec) 
Heartbeat CPU 0 instructions: 840000003 cycles: 268592905 heartbeat IPC: 2.92693 cumulative IPC: 2.92782 (Simulation time: 0 hr 37 min 19 sec) 
Heartbeat CPU 0 instructions: 850000004 cycles: 272007126 heartbeat IPC: 2.92893 cumulative IPC: 2.92783 (Simulation time: 0 hr 37 min 45 sec) 
Heartbeat CPU 0 instructions: 860000003 cycles: 275423176 heartbeat IPC: 2.92736 cumulative IPC: 2.92783 (Simulation time: 0 hr 38 min 12 sec) 
Heartbeat CPU 0 instructions: 870000003 cycles: 278837450 heartbeat IPC: 2.92888 cumulative IPC: 2.92784 (Simulation time: 0 hr 38 min 39 sec) 
Heartbeat CPU 0 instructions: 880000003 cycles: 282253693 heartbeat IPC: 2.92719 cumulative IPC: 2.92783 (Simulation time: 0 hr 39 min 6 sec) 
Heartbeat CPU 0 instructions: 890000002 cycles: 285668149 heartbeat IPC: 2.92872 cumulative IPC: 2.92785 (Simulation time: 0 hr 39 min 33 sec) 
Heartbeat CPU 0 instructions: 900000001 cycles: 289084063 heartbeat IPC: 2.92747 cumulative IPC: 2.92784 (Simulation time: 0 hr 40 min 0 sec) 
Heartbeat CPU 0 instructions: 910000000 cycles: 292499002 heartbeat IPC: 2.92831 cumulative IPC: 2.92785 (Simulation time: 0 hr 40 min 27 sec) 
Heartbeat CPU 0 instructions: 920000004 cycles: 295914873 heartbeat IPC: 2.92751 cumulative IPC: 2.92784 (Simulation time: 0 hr 40 min 54 sec) 
Heartbeat CPU 0 instructions: 930000000 cycles: 299328601 heartbeat IPC: 2.92935 cumulative IPC: 2.92786 (Simulation time: 0 hr 41 min 21 sec) 
Heartbeat CPU 0 instructions: 940000004 cycles: 302744313 heartbeat IPC: 2.92765 cumulative IPC: 2.92786 (Simulation time: 0 hr 41 min 48 sec) 
Heartbeat CPU 0 instructions: 950000004 cycles: 306158972 heartbeat IPC: 2.92855 cumulative IPC: 2.92787 (Simulation time: 0 hr 42 min 14 sec) 
Heartbeat CPU 0 instructions: 960000003 cycles: 309574422 heartbeat IPC: 2.92787 cumulative IPC: 2.92787 (Simulation time: 0 hr 42 min 41 sec) 
Heartbeat CPU 0 instructions: 970000000 cycles: 312988451 heartbeat IPC: 2.92909 cumulative IPC: 2.92789 (Simulation time: 0 hr 43 min 8 sec) 
Heartbeat CPU 0 instructions: 980000004 cycles: 316404515 heartbeat IPC: 2.92735 cumulative IPC: 2.92788 (Simulation time: 0 hr 43 min 35 sec) 
Heartbeat CPU 0 instructions: 990000002 cycles: 319818297 heartbeat IPC: 2.9293 cumulative IPC: 2.9279 (Simulation time: 0 hr 44 min 2 sec) 
Heartbeat CPU 0 instructions: 1000000001 cycles: 323233571 heartbeat IPC: 2.92802 cumulative IPC: 2.9279 (Simulation time: 0 hr 44 min 29 sec) 
Heartbeat CPU 0 instructions: 1010000003 cycles: 326648139 heartbeat IPC: 2.92863 cumulative IPC: 2.92791 (Simulation time: 0 hr 44 min 56 sec) 
Heartbeat CPU 0 instructions: 1020000003 cycles: 330063864 heartbeat IPC: 2.92764 cumulative IPC: 2.9279 (Simulation time: 0 hr 45 min 22 sec) 
Heartbeat CPU 0 instructions: 1030000001 cycles: 333477761 heartbeat IPC: 2.9292 cumulative IPC: 2.92792 (Simulation time: 0 hr 45 min 49 sec) 
Heartbeat CPU 0 instructions: 1040000001 cycles: 336892977 heartbeat IPC: 2.92807 cumulative IPC: 2.92792 (Simulation time: 0 hr 46 min 16 sec) 
Heartbeat CPU 0 instructions: 1050000004 cycles: 340307172 heartbeat IPC: 2.92895 cumulative IPC: 2.92793 (Simulation time: 0 hr 46 min 44 sec) 
Heartbeat CPU 0 instructions: 1060000004 cycles: 343722432 heartbeat IPC: 2.92803 cumulative IPC: 2.92793 (Simulation time: 0 hr 47 min 11 sec) 
Heartbeat CPU 0 instructions: 1070000000 cycles: 347136768 heartbeat IPC: 2.92883 cumulative IPC: 2.92795 (Simulation time: 0 hr 47 min 38 sec) 
Heartbeat CPU 0 instructions: 1080000004 cycles: 350551651 heartbeat IPC: 2.92836 cumulative IPC: 2.92795 (Simulation time: 0 hr 48 min 4 sec) 
Heartbeat CPU 0 instructions: 1090000004 cycles: 353966345 heartbeat IPC: 2.92852 cumulative IPC: 2.92796 (Simulation time: 0 hr 48 min 31 sec) 
Heartbeat CPU 0 instructions: 1100000001 cycles: 357380893 heartbeat IPC: 2.92864 cumulative IPC: 2.92796 (Simulation time: 0 hr 48 min 58 sec) 
Heartbeat CPU 0 instructions: 1110000003 cycles: 360796231 heartbeat IPC: 2.92797 cumulative IPC: 2.92796 (Simulation time: 0 hr 49 min 25 sec) 
Heartbeat CPU 0 instructions: 1120000000 cycles: 364211345 heartbeat IPC: 2.92816 cumulative IPC: 2.92797 (Simulation time: 0 hr 49 min 52 sec) 
Heartbeat CPU 0 instructions: 1130000004 cycles: 367626691 heartbeat IPC: 2.92796 cumulative IPC: 2.92797 (Simulation time: 0 hr 50 min 19 sec) 
Heartbeat CPU 0 instructions: 1140000001 cycles: 371041984 heartbeat IPC: 2.92801 cumulative IPC: 2.92797 (Simulation time: 0 hr 50 min 46 sec) 
Heartbeat CPU 0 instructions: 1150000003 cycles: 374458007 heartbeat IPC: 2.92738 cumulative IPC: 2.92796 (Simulation time: 0 hr 51 min 13 sec) 
Heartbeat CPU 0 instructions: 1160000000 cycles: 377872700 heartbeat IPC: 2.92852 cumulative IPC: 2.92797 (Simulation time: 0 hr 51 min 40 sec) 
Heartbeat CPU 0 instructions: 1170000004 cycles: 381288098 heartbeat IPC: 2.92792 cumulative IPC: 2.92797 (Simulation time: 0 hr 52 min 7 sec) 
Heartbeat CPU 0 instructions: 1180000000 cycles: 384703017 heartbeat IPC: 2.92833 cumulative IPC: 2.92797 (Simulation time: 0 hr 52 min 34 sec) 
Heartbeat CPU 0 instructions: 1190000004 cycles: 388119774 heartbeat IPC: 2.92675 cumulative IPC: 2.92796 (Simulation time: 0 hr 53 min 0 sec) 
Heartbeat CPU 0 instructions: 1200000001 cycles: 391533758 heartbeat IPC: 2.92913 cumulative IPC: 2.92797 (Simulation time: 0 hr 53 min 27 sec) 
Finished CPU 0 instructions: 1000000004 cycles: 341533695 cumulative IPC: 2.92797 (Simulation time: 0 hr 53 min 27 sec) 

ChampSim completed all CPUs

Region of Interest Statistics

CPU 0 cumulative IPC: 2.92797 instructions: 1000000004 cycles: 341533695
cpu0_DTLB TOTAL     ACCESS:   83975599  HIT:   83511784  MISS:     463815
cpu0_DTLB LOAD      ACCESS:   83952917  HIT:   83494680  MISS:     458237
cpu0_DTLB RFO       ACCESS:      22682  HIT:      17104  MISS:       5578
cpu0_DTLB PREFETCH  ACCESS:          0  HIT:          0  MISS:          0
cpu0_DTLB WRITEBACK ACCESS:          0  HIT:          0  MISS:          0
cpu0_DTLB TRANSLATION ACCESS:          0  HIT:          0  MISS:          0
cpu0_DTLB PREFETCH  REQUESTED:          0  ISSUED:          0  USEFUL:          0  USELESS:          0
cpu0_DTLB AVERAGE MISS LATENCY: 11.3007 cycles
cpu0_ITLB TOTAL     ACCESS:   28264022  HIT:   28264022  MISS:          0
cpu0_ITLB LOAD      ACCESS:   28264022  HIT:   28264022  MISS:          0
cpu0_ITLB RFO       ACCESS:          0  HIT:          0  MISS:          0
cpu0_ITLB PREFETCH  ACCESS:          0  HIT:          0  MISS:          0
cpu0_ITLB WRITEBACK ACCESS:          0  HIT:          0  MISS:          0
cpu0_ITLB TRANSLATION ACCESS:          0  HIT:          0  MISS:          0
cpu0_ITLB PREFETCH  REQUESTED:          0  ISSUED:          0  USEFUL:          0  USELESS:          0
cpu0_ITLB AVERAGE MISS LATENCY: -nan cycles
cpu0_STLB TOTAL     ACCESS:     463815  HIT:     463204  MISS:        611
cpu0_STLB LOAD      ACCESS:     458237  HIT:     457632  MISS:        605
cpu0_STLB RFO       ACCESS:       5578  HIT:       5572  MISS:          6
cpu0_STLB PREFETCH  ACCESS:          0  HIT:          0  MISS:          0
cpu0_STLB WRITEBACK ACCESS:          0  HIT:          0  MISS:          0
cpu0_STLB TRANSLATION ACCESS:          0  HIT:          0  MISS:          0
cpu0_STLB PREFETCH  REQUESTED:          0  ISSUED:          0  USEFUL:          0  USELESS:          0
cpu0_STLB AVERAGE MISS LATENCY: 219.206 cycles
cpu0_L1D TOTAL     ACCESS:   35750599  HIT:   26850319  MISS:    8900280
cpu0_L1D LOAD      ACCESS:   35705494  HIT:   26811754  MISS:    8893740
cpu0_L1D RFO       ACCESS:      44494  HIT:      38565  MISS:       5929
cpu0_L1D PREFETCH  ACCESS:          0  HIT:          0  MISS:          0
cpu0_L1D WRITEBACK ACCESS:          0  HIT:          0  MISS:          0
cpu0_L1D TRANSLATION ACCESS:        611  HIT:          0  MISS:        611
cpu0_L1D PREFETCH  REQUESTED:          0  ISSUED:          0  USEFUL:          0  USELESS:          0
cpu0_L1D AVERAGE MISS LATENCY: 11.0945 cycles
cpu0_L2C TOTAL     ACCESS:   41405989  HIT:   41246732  MISS:     159257
cpu0_L2C LOAD      ACCESS:    8893740  HIT:    8882738  MISS:      11002
cpu0_L2C RFO       ACCESS:       5929  HIT:       5580  MISS:        349
cpu0_L2C PREFETCH  ACCESS:   32491415  HIT:   32343515  MISS:     147900
cpu0_L2C WRITEBACK ACCESS:      14294  HIT:      14294  MISS:          0
cpu0_L2C TRANSLATION ACCESS:        611  HIT:        605  MISS:          6
cpu0_L2C PREFETCH  REQUESTED:   34852255  ISSUED:   34626742  USEFUL:     135424  USELESS:      14558
cpu0_L2C AVERAGE MISS LATENCY: 23.3507 cycles
LLC TOTAL     ACCESS:    2287613  HIT:    2248417  MISS:      39196
LLC LOAD      ACCESS:       8952  HIT:       8044  MISS:        908
LLC RFO       ACCESS:        349  HIT:          0  MISS:        349
LLC PREFETCH  ACCESS:    2277894  HIT:    2239955  MISS:      37939
LLC WRITEBACK ACCESS:        412  HIT:        412  MISS:          0
LLC TRANSLATION ACCESS:          6  HIT:          6  MISS:          0
LLC PREFETCH  REQUESTED:          0  ISSUED:          0  USEFUL:          0  USELESS:          0
LLC AVERAGE MISS LATENCY: 164.639 cycles

DRAM Statistics
 CHANNEL 0
 RQ ROW_BUFFER_HIT:         48  ROW_BUFFER_MISS:      39148
 DBUS AVG_CONGESTED_CYCLE:    3.95786
 WQ ROW_BUFFER_HIT:          0  ROW_BUFFER_MISS:        128  FULL:          0


CPU 0 Branch Prediction Accuracy: 99.396% MPKI: 0.625173 Average ROB Occupancy at Mispredict: 187.805
Branch type MPKI
BRANCH_DIRECT_JUMP: 1e-06
BRANCH_INDIRECT: 0
BRANCH_CONDITIONAL: 0.625172
BRANCH_DIRECT_CALL: 0
BRANCH_INDIRECT_CALL: 0
BRANCH_RETURN: 0

***************** Done with 638.imagick_s-10316B.champsimtrace.xz using spp-dev-agg, on Mon Apr 18 16:26:01 CDT 2022 ******************
