Started running file 628.pop2_s-17B.champsimtrace.xz at time Mon Apr 18 13:37:11 CDT 2022 with prefetcher spp-dev-agg

*** ChampSim Multicore Out-of-Order Simulator ***

Warmup Instructions: 200000000
Simulation Instructions: 1000000000
Number of CPUs: 1
Off-chip DRAM Size: 4 GiB Channels: 1 Width: 64-bit Data Rate: 3200 MT/s

VirtualMemory physical capacity: 8588881920 num_ppages: 2096895
VirtualMemory page size: 4096 log2_page_size: 12

CPU 0 runs /home/faculty/p/pgratz/dpc3_traces/628.pop2_s-17B.champsimtrace.xz
CPU 0 Bimodal branch predictor
Basic BTB sets: 1024 ways: 8 indirect buffer size: 4096 RAS size: 64
SPP-DEV original prefetcher
Heartbeat CPU 0 instructions: 10000000 cycles: 2811850 heartbeat IPC: 3.55638 cumulative IPC: 3.55638 (Simulation time: 0 hr 0 min 32 sec) 
Heartbeat CPU 0 instructions: 20000002 cycles: 5623178 heartbeat IPC: 3.55704 cumulative IPC: 3.55671 (Simulation time: 0 hr 1 min 5 sec) 
Heartbeat CPU 0 instructions: 30000004 cycles: 8433859 heartbeat IPC: 3.55786 cumulative IPC: 3.55709 (Simulation time: 0 hr 1 min 37 sec) 
Heartbeat CPU 0 instructions: 40000001 cycles: 11243074 heartbeat IPC: 3.55971 cumulative IPC: 3.55775 (Simulation time: 0 hr 2 min 9 sec) 
Heartbeat CPU 0 instructions: 50000001 cycles: 14051143 heartbeat IPC: 3.56117 cumulative IPC: 3.55843 (Simulation time: 0 hr 2 min 41 sec) 
Heartbeat CPU 0 instructions: 60000001 cycles: 16859372 heartbeat IPC: 3.56096 cumulative IPC: 3.55885 (Simulation time: 0 hr 3 min 13 sec) 
Heartbeat CPU 0 instructions: 70000000 cycles: 19662954 heartbeat IPC: 3.56687 cumulative IPC: 3.55999 (Simulation time: 0 hr 3 min 45 sec) 
Heartbeat CPU 0 instructions: 80000001 cycles: 22279864 heartbeat IPC: 3.8213 cumulative IPC: 3.59069 (Simulation time: 0 hr 4 min 14 sec) 
Heartbeat CPU 0 instructions: 90000001 cycles: 25037777 heartbeat IPC: 3.62593 cumulative IPC: 3.59457 (Simulation time: 0 hr 4 min 42 sec) 
Heartbeat CPU 0 instructions: 100000000 cycles: 27829437 heartbeat IPC: 3.5821 cumulative IPC: 3.59332 (Simulation time: 0 hr 5 min 13 sec) 
Heartbeat CPU 0 instructions: 110000003 cycles: 30492348 heartbeat IPC: 3.75529 cumulative IPC: 3.60746 (Simulation time: 0 hr 5 min 42 sec) 
Heartbeat CPU 0 instructions: 120000004 cycles: 33361386 heartbeat IPC: 3.48549 cumulative IPC: 3.59697 (Simulation time: 0 hr 6 min 7 sec) 
Heartbeat CPU 0 instructions: 130000001 cycles: 36215905 heartbeat IPC: 3.50322 cumulative IPC: 3.58958 (Simulation time: 0 hr 6 min 35 sec) 
Heartbeat CPU 0 instructions: 140000001 cycles: 39008900 heartbeat IPC: 3.58039 cumulative IPC: 3.58892 (Simulation time: 0 hr 6 min 56 sec) 
Heartbeat CPU 0 instructions: 150000001 cycles: 41711910 heartbeat IPC: 3.69958 cumulative IPC: 3.5961 (Simulation time: 0 hr 7 min 14 sec) 
Heartbeat CPU 0 instructions: 160000000 cycles: 44537372 heartbeat IPC: 3.53924 cumulative IPC: 3.59249 (Simulation time: 0 hr 7 min 33 sec) 
Heartbeat CPU 0 instructions: 170000000 cycles: 47311244 heartbeat IPC: 3.60507 cumulative IPC: 3.59323 (Simulation time: 0 hr 7 min 55 sec) 
Heartbeat CPU 0 instructions: 180000004 cycles: 50092752 heartbeat IPC: 3.59517 cumulative IPC: 3.59333 (Simulation time: 0 hr 8 min 23 sec) 
Heartbeat CPU 0 instructions: 190000003 cycles: 52902497 heartbeat IPC: 3.55904 cumulative IPC: 3.59151 (Simulation time: 0 hr 8 min 55 sec) 
Heartbeat CPU 0 instructions: 200000001 cycles: 55712863 heartbeat IPC: 3.55825 cumulative IPC: 3.58984 (Simulation time: 0 hr 9 min 28 sec) 

Warmup complete CPU 0 instructions: 200000001 cycles: 55712863 (Simulation time: 0 hr 9 min 28 sec) 

Heartbeat CPU 0 instructions: 210000002 cycles: 60139197 heartbeat IPC: 2.25921 cumulative IPC: 2.25921 (Simulation time: 0 hr 10 min 5 sec) 
Heartbeat CPU 0 instructions: 220000003 cycles: 64536065 heartbeat IPC: 2.27435 cumulative IPC: 2.26675 (Simulation time: 0 hr 10 min 42 sec) 
Heartbeat CPU 0 instructions: 230000000 cycles: 68965095 heartbeat IPC: 2.25783 cumulative IPC: 2.26377 (Simulation time: 0 hr 11 min 19 sec) 
Heartbeat CPU 0 instructions: 240000003 cycles: 73354791 heartbeat IPC: 2.27806 cumulative IPC: 2.26733 (Simulation time: 0 hr 11 min 56 sec) 
Heartbeat CPU 0 instructions: 250000001 cycles: 77610890 heartbeat IPC: 2.34957 cumulative IPC: 2.28331 (Simulation time: 0 hr 12 min 32 sec) 
Heartbeat CPU 0 instructions: 260000004 cycles: 81810626 heartbeat IPC: 2.3811 cumulative IPC: 2.29905 (Simulation time: 0 hr 13 min 4 sec) 
Heartbeat CPU 0 instructions: 270000000 cycles: 86920646 heartbeat IPC: 1.95694 cumulative IPC: 2.24303 (Simulation time: 0 hr 13 min 38 sec) 
Heartbeat CPU 0 instructions: 280000004 cycles: 92850958 heartbeat IPC: 1.68625 cumulative IPC: 2.15412 (Simulation time: 0 hr 14 min 21 sec) 
Heartbeat CPU 0 instructions: 290000000 cycles: 98810465 heartbeat IPC: 1.67799 cumulative IPC: 2.08828 (Simulation time: 0 hr 15 min 1 sec) 
Heartbeat CPU 0 instructions: 300000001 cycles: 106177880 heartbeat IPC: 1.35733 cumulative IPC: 1.98157 (Simulation time: 0 hr 15 min 43 sec) 
Heartbeat CPU 0 instructions: 310000001 cycles: 111570706 heartbeat IPC: 1.85432 cumulative IPC: 1.96928 (Simulation time: 0 hr 16 min 15 sec) 
Heartbeat CPU 0 instructions: 320000004 cycles: 117452816 heartbeat IPC: 1.70007 cumulative IPC: 1.94364 (Simulation time: 0 hr 16 min 45 sec) 
Heartbeat CPU 0 instructions: 330000000 cycles: 122505786 heartbeat IPC: 1.97903 cumulative IPC: 1.94631 (Simulation time: 0 hr 17 min 12 sec) 
Heartbeat CPU 0 instructions: 340000001 cycles: 128267444 heartbeat IPC: 1.73561 cumulative IPC: 1.92958 (Simulation time: 0 hr 17 min 42 sec) 
Heartbeat CPU 0 instructions: 350000001 cycles: 132977031 heartbeat IPC: 2.12333 cumulative IPC: 1.94139 (Simulation time: 0 hr 18 min 10 sec) 
Heartbeat CPU 0 instructions: 360000002 cycles: 138586571 heartbeat IPC: 1.78268 cumulative IPC: 1.93065 (Simulation time: 0 hr 18 min 46 sec) 
Heartbeat CPU 0 instructions: 370000001 cycles: 143064938 heartbeat IPC: 2.23296 cumulative IPC: 1.94615 (Simulation time: 0 hr 19 min 24 sec) 
Heartbeat CPU 0 instructions: 380000004 cycles: 147566629 heartbeat IPC: 2.22139 cumulative IPC: 1.95964 (Simulation time: 0 hr 20 min 1 sec) 
Heartbeat CPU 0 instructions: 390000000 cycles: 152049482 heartbeat IPC: 2.23072 cumulative IPC: 1.97225 (Simulation time: 0 hr 20 min 39 sec) 
Heartbeat CPU 0 instructions: 400000002 cycles: 156541865 heartbeat IPC: 2.22599 cumulative IPC: 1.98356 (Simulation time: 0 hr 21 min 16 sec) 
Heartbeat CPU 0 instructions: 410000000 cycles: 161048677 heartbeat IPC: 2.21886 cumulative IPC: 1.99362 (Simulation time: 0 hr 21 min 53 sec) 
Heartbeat CPU 0 instructions: 420000001 cycles: 165502712 heartbeat IPC: 2.24516 cumulative IPC: 2.00383 (Simulation time: 0 hr 22 min 30 sec) 
Heartbeat CPU 0 instructions: 430000004 cycles: 169853286 heartbeat IPC: 2.29855 cumulative IPC: 2.01506 (Simulation time: 0 hr 23 min 7 sec) 
Heartbeat CPU 0 instructions: 440000003 cycles: 173775409 heartbeat IPC: 2.54964 cumulative IPC: 2.03282 (Simulation time: 0 hr 23 min 39 sec) 
Heartbeat CPU 0 instructions: 450000002 cycles: 179136018 heartbeat IPC: 1.86546 cumulative IPC: 2.02555 (Simulation time: 0 hr 24 min 15 sec) 
Heartbeat CPU 0 instructions: 460000003 cycles: 184842660 heartbeat IPC: 1.75234 cumulative IPC: 2.01348 (Simulation time: 0 hr 24 min 55 sec) 
Heartbeat CPU 0 instructions: 470000001 cycles: 190557596 heartbeat IPC: 1.7498 cumulative IPC: 2.0023 (Simulation time: 0 hr 25 min 36 sec) 
Heartbeat CPU 0 instructions: 480000002 cycles: 198082215 heartbeat IPC: 1.32897 cumulative IPC: 1.96672 (Simulation time: 0 hr 26 min 23 sec) 
Heartbeat CPU 0 instructions: 490000001 cycles: 203073377 heartbeat IPC: 2.00354 cumulative IPC: 1.96796 (Simulation time: 0 hr 26 min 53 sec) 
Heartbeat CPU 0 instructions: 500000004 cycles: 209460550 heartbeat IPC: 1.56564 cumulative IPC: 1.95125 (Simulation time: 0 hr 27 min 26 sec) 
Heartbeat CPU 0 instructions: 510000001 cycles: 213961281 heartbeat IPC: 2.22186 cumulative IPC: 1.95895 (Simulation time: 0 hr 27 min 51 sec) 
Heartbeat CPU 0 instructions: 520000002 cycles: 220247556 heartbeat IPC: 1.59077 cumulative IPC: 1.94488 (Simulation time: 0 hr 28 min 26 sec) 
Heartbeat CPU 0 instructions: 530000002 cycles: 224697244 heartbeat IPC: 2.24735 cumulative IPC: 1.95284 (Simulation time: 0 hr 28 min 51 sec) 
Heartbeat CPU 0 instructions: 540000000 cycles: 230378293 heartbeat IPC: 1.76024 cumulative IPC: 1.94658 (Simulation time: 0 hr 29 min 26 sec) 
Heartbeat CPU 0 instructions: 550000000 cycles: 234759240 heartbeat IPC: 2.28261 cumulative IPC: 1.9548 (Simulation time: 0 hr 30 min 4 sec) 
Heartbeat CPU 0 instructions: 560000004 cycles: 239121897 heartbeat IPC: 2.29218 cumulative IPC: 1.96283 (Simulation time: 0 hr 30 min 43 sec) 
Heartbeat CPU 0 instructions: 570000001 cycles: 243487942 heartbeat IPC: 2.2904 cumulative IPC: 1.97044 (Simulation time: 0 hr 31 min 21 sec) 
Heartbeat CPU 0 instructions: 580000004 cycles: 247857660 heartbeat IPC: 2.28848 cumulative IPC: 1.97768 (Simulation time: 0 hr 31 min 59 sec) 
Heartbeat CPU 0 instructions: 590000002 cycles: 252227185 heartbeat IPC: 2.28858 cumulative IPC: 1.98459 (Simulation time: 0 hr 32 min 37 sec) 
Heartbeat CPU 0 instructions: 600000002 cycles: 256581143 heartbeat IPC: 2.29676 cumulative IPC: 1.99135 (Simulation time: 0 hr 33 min 15 sec) 
Heartbeat CPU 0 instructions: 610000001 cycles: 261029408 heartbeat IPC: 2.24807 cumulative IPC: 1.99692 (Simulation time: 0 hr 33 min 52 sec) 
Heartbeat CPU 0 instructions: 620000001 cycles: 264732386 heartbeat IPC: 2.70053 cumulative IPC: 2.00938 (Simulation time: 0 hr 34 min 23 sec) 
Heartbeat CPU 0 instructions: 630000001 cycles: 270219206 heartbeat IPC: 1.82255 cumulative IPC: 2.0046 (Simulation time: 0 hr 35 min 1 sec) 
Heartbeat CPU 0 instructions: 640000004 cycles: 275277720 heartbeat IPC: 1.97687 cumulative IPC: 2.00396 (Simulation time: 0 hr 35 min 36 sec) 
Heartbeat CPU 0 instructions: 650000003 cycles: 281615943 heartbeat IPC: 1.57773 cumulative IPC: 1.992 (Simulation time: 0 hr 36 min 19 sec) 
Heartbeat CPU 0 instructions: 660000003 cycles: 289405014 heartbeat IPC: 1.28385 cumulative IPC: 1.9684 (Simulation time: 0 hr 37 min 12 sec) 
Heartbeat CPU 0 instructions: 670000003 cycles: 294289633 heartbeat IPC: 2.04724 cumulative IPC: 1.97002 (Simulation time: 0 hr 37 min 40 sec) 
Heartbeat CPU 0 instructions: 680000004 cycles: 301431660 heartbeat IPC: 1.40016 cumulative IPC: 1.95345 (Simulation time: 0 hr 38 min 17 sec) 
Heartbeat CPU 0 instructions: 690000000 cycles: 305269046 heartbeat IPC: 2.60594 cumulative IPC: 1.96349 (Simulation time: 0 hr 38 min 37 sec) 
Heartbeat CPU 0 instructions: 700000001 cycles: 310685941 heartbeat IPC: 1.84608 cumulative IPC: 1.96099 (Simulation time: 0 hr 39 min 8 sec) 
Heartbeat CPU 0 instructions: 710000002 cycles: 316500511 heartbeat IPC: 1.71982 cumulative IPC: 1.95561 (Simulation time: 0 hr 39 min 40 sec) 
Heartbeat CPU 0 instructions: 720000001 cycles: 321601828 heartbeat IPC: 1.96028 cumulative IPC: 1.9557 (Simulation time: 0 hr 40 min 11 sec) 
Heartbeat CPU 0 instructions: 730000001 cycles: 326717192 heartbeat IPC: 1.9549 cumulative IPC: 1.95569 (Simulation time: 0 hr 40 min 51 sec) 
Heartbeat CPU 0 instructions: 740000000 cycles: 331036259 heartbeat IPC: 2.31531 cumulative IPC: 1.96133 (Simulation time: 0 hr 41 min 29 sec) 
Heartbeat CPU 0 instructions: 750000003 cycles: 335382699 heartbeat IPC: 2.30073 cumulative IPC: 1.9666 (Simulation time: 0 hr 42 min 8 sec) 
Heartbeat CPU 0 instructions: 760000003 cycles: 339754241 heartbeat IPC: 2.28752 cumulative IPC: 1.97154 (Simulation time: 0 hr 42 min 46 sec) 
Heartbeat CPU 0 instructions: 770000001 cycles: 344119665 heartbeat IPC: 2.29073 cumulative IPC: 1.97637 (Simulation time: 0 hr 43 min 24 sec) 
Heartbeat CPU 0 instructions: 780000003 cycles: 348540939 heartbeat IPC: 2.26179 cumulative IPC: 1.98068 (Simulation time: 0 hr 44 min 2 sec) 
Heartbeat CPU 0 instructions: 790000000 cycles: 353044749 heartbeat IPC: 2.22034 cumulative IPC: 1.98431 (Simulation time: 0 hr 44 min 40 sec) 
Heartbeat CPU 0 instructions: 800000002 cycles: 357070070 heartbeat IPC: 2.48427 cumulative IPC: 1.99099 (Simulation time: 0 hr 45 min 14 sec) 
Heartbeat CPU 0 instructions: 810000001 cycles: 361684728 heartbeat IPC: 2.16701 cumulative IPC: 1.99365 (Simulation time: 0 hr 45 min 49 sec) 
Heartbeat CPU 0 instructions: 820000002 cycles: 366748012 heartbeat IPC: 1.975 cumulative IPC: 1.99334 (Simulation time: 0 hr 46 min 24 sec) 
Heartbeat CPU 0 instructions: 830000002 cycles: 372841994 heartbeat IPC: 1.64096 cumulative IPC: 1.98657 (Simulation time: 0 hr 47 min 7 sec) 
Heartbeat CPU 0 instructions: 840000001 cycles: 378653269 heartbeat IPC: 1.72079 cumulative IPC: 1.98179 (Simulation time: 0 hr 47 min 49 sec) 
Heartbeat CPU 0 instructions: 850000002 cycles: 385894777 heartbeat IPC: 1.38093 cumulative IPC: 1.96861 (Simulation time: 0 hr 48 min 29 sec) 
Heartbeat CPU 0 instructions: 860000000 cycles: 391482243 heartbeat IPC: 1.78972 cumulative IPC: 1.96563 (Simulation time: 0 hr 49 min 4 sec) 
Heartbeat CPU 0 instructions: 870000001 cycles: 397262138 heartbeat IPC: 1.73014 cumulative IPC: 1.96165 (Simulation time: 0 hr 49 min 34 sec) 
Heartbeat CPU 0 instructions: 880000000 cycles: 402248762 heartbeat IPC: 2.00536 cumulative IPC: 1.96228 (Simulation time: 0 hr 50 min 3 sec) 
Heartbeat CPU 0 instructions: 890000001 cycles: 408217517 heartbeat IPC: 1.67539 cumulative IPC: 1.95742 (Simulation time: 0 hr 50 min 35 sec) 
Heartbeat CPU 0 instructions: 900000004 cycles: 412934145 heartbeat IPC: 2.12016 cumulative IPC: 1.95957 (Simulation time: 0 hr 51 min 4 sec) 
Heartbeat CPU 0 instructions: 910000004 cycles: 418343690 heartbeat IPC: 1.84858 cumulative IPC: 1.95791 (Simulation time: 0 hr 51 min 41 sec) 
Heartbeat CPU 0 instructions: 920000004 cycles: 422656339 heartbeat IPC: 2.31876 cumulative IPC: 1.96216 (Simulation time: 0 hr 52 min 19 sec) 
Heartbeat CPU 0 instructions: 930000000 cycles: 426942552 heartbeat IPC: 2.33306 cumulative IPC: 1.96644 (Simulation time: 0 hr 52 min 58 sec) 
Heartbeat CPU 0 instructions: 940000004 cycles: 431208859 heartbeat IPC: 2.34395 cumulative IPC: 1.97073 (Simulation time: 0 hr 53 min 36 sec) 
Heartbeat CPU 0 instructions: 950000000 cycles: 435469249 heartbeat IPC: 2.3472 cumulative IPC: 1.97495 (Simulation time: 0 hr 54 min 15 sec) 
Heartbeat CPU 0 instructions: 960000003 cycles: 439734596 heartbeat IPC: 2.34448 cumulative IPC: 1.97905 (Simulation time: 0 hr 54 min 53 sec) 
Heartbeat CPU 0 instructions: 970000002 cycles: 444126292 heartbeat IPC: 2.27702 cumulative IPC: 1.98242 (Simulation time: 0 hr 55 min 32 sec) 
Heartbeat CPU 0 instructions: 980000003 cycles: 448630389 heartbeat IPC: 2.2202 cumulative IPC: 1.98515 (Simulation time: 0 hr 56 min 9 sec) 
Heartbeat CPU 0 instructions: 990000002 cycles: 452471434 heartbeat IPC: 2.60346 cumulative IPC: 1.99114 (Simulation time: 0 hr 56 min 41 sec) 
Heartbeat CPU 0 instructions: 1000000001 cycles: 457876529 heartbeat IPC: 1.85011 cumulative IPC: 1.98924 (Simulation time: 0 hr 57 min 16 sec) 
Heartbeat CPU 0 instructions: 1010000003 cycles: 463746911 heartbeat IPC: 1.70347 cumulative IPC: 1.98513 (Simulation time: 0 hr 57 min 57 sec) 
Heartbeat CPU 0 instructions: 1020000000 cycles: 469371430 heartbeat IPC: 1.77793 cumulative IPC: 1.98231 (Simulation time: 0 hr 58 min 37 sec) 
Heartbeat CPU 0 instructions: 1030000002 cycles: 477058727 heartbeat IPC: 1.30085 cumulative IPC: 1.96988 (Simulation time: 0 hr 59 min 25 sec) 
Heartbeat CPU 0 instructions: 1040000000 cycles: 482212177 heartbeat IPC: 1.94045 cumulative IPC: 1.96952 (Simulation time: 0 hr 59 min 56 sec) 
Heartbeat CPU 0 instructions: 1050000000 cycles: 488898235 heartbeat IPC: 1.49565 cumulative IPC: 1.96221 (Simulation time: 1 hr 0 min 30 sec) 
Heartbeat CPU 0 instructions: 1060000003 cycles: 493218945 heartbeat IPC: 2.31444 cumulative IPC: 1.96569 (Simulation time: 1 hr 0 min 53 sec) 
Heartbeat CPU 0 instructions: 1070000000 cycles: 499858832 heartbeat IPC: 1.50605 cumulative IPC: 1.95882 (Simulation time: 1 hr 1 min 30 sec) 
Heartbeat CPU 0 instructions: 1080000002 cycles: 504333163 heartbeat IPC: 2.23497 cumulative IPC: 1.96157 (Simulation time: 1 hr 1 min 55 sec) 
Heartbeat CPU 0 instructions: 1090000001 cycles: 509827614 heartbeat IPC: 1.82002 cumulative IPC: 1.95986 (Simulation time: 1 hr 2 min 29 sec) 
Heartbeat CPU 0 instructions: 1100000000 cycles: 514345589 heartbeat IPC: 2.21338 cumulative IPC: 1.96235 (Simulation time: 1 hr 3 min 8 sec) 
Heartbeat CPU 0 instructions: 1110000001 cycles: 518636265 heartbeat IPC: 2.33064 cumulative IPC: 1.96577 (Simulation time: 1 hr 3 min 46 sec) 
Heartbeat CPU 0 instructions: 1120000003 cycles: 522927755 heartbeat IPC: 2.33019 cumulative IPC: 1.96912 (Simulation time: 1 hr 4 min 25 sec) 
Heartbeat CPU 0 instructions: 1130000002 cycles: 527250447 heartbeat IPC: 2.31337 cumulative IPC: 1.97227 (Simulation time: 1 hr 5 min 3 sec) 
Heartbeat CPU 0 instructions: 1140000000 cycles: 531544081 heartbeat IPC: 2.32903 cumulative IPC: 1.97549 (Simulation time: 1 hr 5 min 41 sec) 
Heartbeat CPU 0 instructions: 1150000001 cycles: 535869355 heartbeat IPC: 2.31199 cumulative IPC: 1.97852 (Simulation time: 1 hr 6 min 19 sec) 
Heartbeat CPU 0 instructions: 1160000000 cycles: 540416634 heartbeat IPC: 2.19912 cumulative IPC: 1.98059 (Simulation time: 1 hr 6 min 57 sec) 
Heartbeat CPU 0 instructions: 1170000003 cycles: 544266811 heartbeat IPC: 2.59728 cumulative IPC: 1.98545 (Simulation time: 1 hr 7 min 29 sec) 
Heartbeat CPU 0 instructions: 1180000004 cycles: 549354251 heartbeat IPC: 1.96563 cumulative IPC: 1.98525 (Simulation time: 1 hr 8 min 5 sec) 
Heartbeat CPU 0 instructions: 1190000001 cycles: 554315791 heartbeat IPC: 2.0155 cumulative IPC: 1.98555 (Simulation time: 1 hr 8 min 40 sec) 
Heartbeat CPU 0 instructions: 1200000003 cycles: 560929705 heartbeat IPC: 1.51196 cumulative IPC: 1.97935 (Simulation time: 1 hr 9 min 24 sec) 
Finished CPU 0 instructions: 1000000002 cycles: 505216842 cumulative IPC: 1.97935 (Simulation time: 1 hr 9 min 24 sec) 

ChampSim completed all CPUs

Region of Interest Statistics

CPU 0 cumulative IPC: 1.97935 instructions: 1000000002 cycles: 505216842
cpu0_DTLB TOTAL     ACCESS:  195471263  HIT:  195001755  MISS:     469508
cpu0_DTLB LOAD      ACCESS:  157287183  HIT:  156902728  MISS:     384455
cpu0_DTLB RFO       ACCESS:   38184080  HIT:   38099027  MISS:      85053
cpu0_DTLB PREFETCH  ACCESS:          0  HIT:          0  MISS:          0
cpu0_DTLB WRITEBACK ACCESS:          0  HIT:          0  MISS:          0
cpu0_DTLB TRANSLATION ACCESS:          0  HIT:          0  MISS:          0
cpu0_DTLB PREFETCH  REQUESTED:          0  ISSUED:          0  USEFUL:          0  USELESS:          0
cpu0_DTLB AVERAGE MISS LATENCY: 24.7336 cycles
cpu0_ITLB TOTAL     ACCESS:   98282843  HIT:   98261442  MISS:      21401
cpu0_ITLB LOAD      ACCESS:   98282843  HIT:   98261442  MISS:      21401
cpu0_ITLB RFO       ACCESS:          0  HIT:          0  MISS:          0
cpu0_ITLB PREFETCH  ACCESS:          0  HIT:          0  MISS:          0
cpu0_ITLB WRITEBACK ACCESS:          0  HIT:          0  MISS:          0
cpu0_ITLB TRANSLATION ACCESS:          0  HIT:          0  MISS:          0
cpu0_ITLB PREFETCH  REQUESTED:          0  ISSUED:          0  USEFUL:          0  USELESS:          0
cpu0_ITLB AVERAGE MISS LATENCY: 12.0094 cycles
cpu0_L1I TOTAL     ACCESS:    6307549  HIT:    5810915  MISS:     496634
cpu0_L1I LOAD      ACCESS:    6307549  HIT:    5810915  MISS:     496634
cpu0_L1I RFO       ACCESS:          0  HIT:          0  MISS:          0
cpu0_L1I PREFETCH  ACCESS:          0  HIT:          0  MISS:          0
cpu0_L1I WRITEBACK ACCESS:          0  HIT:          0  MISS:          0
cpu0_L1I TRANSLATION ACCESS:          0  HIT:          0  MISS:          0
cpu0_L1I PREFETCH  REQUESTED:          0  ISSUED:          0  USEFUL:          0  USELESS:          0
cpu0_L1I AVERAGE MISS LATENCY: 28.7623 cycles
cpu0_STLB TOTAL     ACCESS:     490909  HIT:     464717  MISS:      26192
cpu0_STLB LOAD      ACCESS:     405856  HIT:     395596  MISS:      10260
cpu0_STLB RFO       ACCESS:      85053  HIT:      69121  MISS:      15932
cpu0_STLB PREFETCH  ACCESS:          0  HIT:          0  MISS:          0
cpu0_STLB WRITEBACK ACCESS:          0  HIT:          0  MISS:          0
cpu0_STLB TRANSLATION ACCESS:          0  HIT:          0  MISS:          0
cpu0_STLB PREFETCH  REQUESTED:          0  ISSUED:          0  USEFUL:          0  USELESS:          0
cpu0_STLB AVERAGE MISS LATENCY: 246.01 cycles
cpu0_L1D TOTAL     ACCESS:  167662749  HIT:  153053659  MISS:   14609090
cpu0_L1D LOAD      ACCESS:  114691342  HIT:  105112234  MISS:    9579108
cpu0_L1D RFO       ACCESS:   52945311  HIT:   47927669  MISS:    5017642
cpu0_L1D PREFETCH  ACCESS:          0  HIT:          0  MISS:          0
cpu0_L1D WRITEBACK ACCESS:          0  HIT:          0  MISS:          0
cpu0_L1D TRANSLATION ACCESS:      26096  HIT:      13756  MISS:      12340
cpu0_L1D PREFETCH  REQUESTED:          0  ISSUED:          0  USEFUL:          0  USELESS:          0
cpu0_L1D AVERAGE MISS LATENCY: 95.9157 cycles
cpu0_L2C TOTAL     ACCESS:   37764210  HIT:   30853520  MISS:    6910690
cpu0_L2C LOAD      ACCESS:   10074450  HIT:    8244909  MISS:    1829541
cpu0_L2C RFO       ACCESS:    5017189  HIT:    2862901  MISS:    2154288
cpu0_L2C PREFETCH  ACCESS:   16125373  HIT:   13207863  MISS:    2917510
cpu0_L2C WRITEBACK ACCESS:    6534858  HIT:    6529494  MISS:       5364
cpu0_L2C TRANSLATION ACCESS:      12340  HIT:       8353  MISS:       3987
cpu0_L2C PREFETCH  REQUESTED:   32253730  ISSUED:   27062616  USEFUL:    3664146  USELESS:     213506
cpu0_L2C AVERAGE MISS LATENCY: 186.705 cycles
LLC TOTAL     ACCESS:   15416723  HIT:   11740189  MISS:    3676534
LLC LOAD      ACCESS:     869655  HIT:     671254  MISS:     198401
LLC RFO       ACCESS:    2154253  HIT:     873676  MISS:    1280577
LLC PREFETCH  ACCESS:    9293729  HIT:    7126269  MISS:    2167460
LLC WRITEBACK ACCESS:    3095099  HIT:    3065578  MISS:      29521
LLC TRANSLATION ACCESS:       3987  HIT:       3412  MISS:        575
LLC PREFETCH  REQUESTED:          0  ISSUED:          0  USEFUL:          0  USELESS:          0
LLC AVERAGE MISS LATENCY: 578.66 cycles

DRAM Statistics
 CHANNEL 0
 RQ ROW_BUFFER_HIT:    1157342  ROW_BUFFER_MISS:    2488546
 DBUS AVG_CONGESTED_CYCLE:     3.9582
 WQ ROW_BUFFER_HIT:     245860  ROW_BUFFER_MISS:    1539160  FULL:        955


CPU 0 Branch Prediction Accuracy: 95.9781% MPKI: 6.11584 Average ROB Occupancy at Mispredict: 110.994
Branch type MPKI
BRANCH_DIRECT_JUMP: 1.4e-05
BRANCH_INDIRECT: 0.000694
BRANCH_CONDITIONAL: 6.11512
BRANCH_DIRECT_CALL: 1.1e-05
BRANCH_INDIRECT_CALL: 0
BRANCH_RETURN: 0

***************** Done with 628.pop2_s-17B.champsimtrace.xz using spp-dev-agg, on Mon Apr 18 14:46:35 CDT 2022 ******************
