Started running file 657.xz_s-3167B.champsimtrace.xz at time Mon Apr 18 20:39:24 CDT 2022 with prefetcher spp-dev-agg

*** ChampSim Multicore Out-of-Order Simulator ***

Warmup Instructions: 200000000
Simulation Instructions: 1000000000
Number of CPUs: 1
Off-chip DRAM Size: 4 GiB Channels: 1 Width: 64-bit Data Rate: 3200 MT/s

VirtualMemory physical capacity: 8588881920 num_ppages: 2096895
VirtualMemory page size: 4096 log2_page_size: 12

CPU 0 runs /home/faculty/p/pgratz/dpc3_traces/657.xz_s-3167B.champsimtrace.xz
CPU 0 Bimodal branch predictor
Basic BTB sets: 1024 ways: 8 indirect buffer size: 4096 RAS size: 64
SPP-DEV original prefetcher
Heartbeat CPU 0 instructions: 10000000 cycles: 2511760 heartbeat IPC: 3.98127 cumulative IPC: 3.98127 (Simulation time: 0 hr 0 min 30 sec) 
Heartbeat CPU 0 instructions: 20000000 cycles: 5023717 heartbeat IPC: 3.98096 cumulative IPC: 3.98112 (Simulation time: 0 hr 1 min 1 sec) 
Heartbeat CPU 0 instructions: 30000001 cycles: 7529687 heartbeat IPC: 3.99047 cumulative IPC: 3.98423 (Simulation time: 0 hr 1 min 32 sec) 
Heartbeat CPU 0 instructions: 40000002 cycles: 10035663 heartbeat IPC: 3.99046 cumulative IPC: 3.98579 (Simulation time: 0 hr 2 min 2 sec) 
Heartbeat CPU 0 instructions: 50000002 cycles: 12541679 heartbeat IPC: 3.9904 cumulative IPC: 3.98671 (Simulation time: 0 hr 2 min 33 sec) 
Heartbeat CPU 0 instructions: 60000003 cycles: 15050704 heartbeat IPC: 3.98561 cumulative IPC: 3.98652 (Simulation time: 0 hr 3 min 4 sec) 
Heartbeat CPU 0 instructions: 70000002 cycles: 17556703 heartbeat IPC: 3.99042 cumulative IPC: 3.98708 (Simulation time: 0 hr 3 min 35 sec) 
Heartbeat CPU 0 instructions: 80000000 cycles: 20065680 heartbeat IPC: 3.98569 cumulative IPC: 3.98691 (Simulation time: 0 hr 4 min 5 sec) 
Heartbeat CPU 0 instructions: 90000001 cycles: 22571658 heartbeat IPC: 3.99046 cumulative IPC: 3.9873 (Simulation time: 0 hr 4 min 36 sec) 
Heartbeat CPU 0 instructions: 100000002 cycles: 25080619 heartbeat IPC: 3.98571 cumulative IPC: 3.98714 (Simulation time: 0 hr 5 min 8 sec) 
Heartbeat CPU 0 instructions: 110000002 cycles: 27589570 heartbeat IPC: 3.98573 cumulative IPC: 3.98701 (Simulation time: 0 hr 5 min 39 sec) 
Heartbeat CPU 0 instructions: 120000000 cycles: 30098679 heartbeat IPC: 3.98548 cumulative IPC: 3.98689 (Simulation time: 0 hr 6 min 9 sec) 
Heartbeat CPU 0 instructions: 130000002 cycles: 32607662 heartbeat IPC: 3.98568 cumulative IPC: 3.98679 (Simulation time: 0 hr 6 min 40 sec) 
Heartbeat CPU 0 instructions: 140000002 cycles: 35116727 heartbeat IPC: 3.98555 cumulative IPC: 3.9867 (Simulation time: 0 hr 7 min 11 sec) 
Heartbeat CPU 0 instructions: 150000001 cycles: 37625704 heartbeat IPC: 3.98569 cumulative IPC: 3.98664 (Simulation time: 0 hr 7 min 41 sec) 
Heartbeat CPU 0 instructions: 160000003 cycles: 40134862 heartbeat IPC: 3.9854 cumulative IPC: 3.98656 (Simulation time: 0 hr 8 min 11 sec) 
Heartbeat CPU 0 instructions: 170000001 cycles: 42644331 heartbeat IPC: 3.98491 cumulative IPC: 3.98646 (Simulation time: 0 hr 8 min 42 sec) 
Heartbeat CPU 0 instructions: 180000000 cycles: 45151091 heartbeat IPC: 3.98921 cumulative IPC: 3.98661 (Simulation time: 0 hr 9 min 12 sec) 
Heartbeat CPU 0 instructions: 190000000 cycles: 47657516 heartbeat IPC: 3.98975 cumulative IPC: 3.98678 (Simulation time: 0 hr 9 min 43 sec) 
Heartbeat CPU 0 instructions: 200000002 cycles: 50160521 heartbeat IPC: 3.9952 cumulative IPC: 3.9872 (Simulation time: 0 hr 10 min 13 sec) 

Warmup complete CPU 0 instructions: 200000002 cycles: 50160521 (Simulation time: 0 hr 10 min 13 sec) 

Heartbeat CPU 0 instructions: 210000000 cycles: 59197891 heartbeat IPC: 1.10652 cumulative IPC: 1.10652 (Simulation time: 0 hr 10 min 44 sec) 
Heartbeat CPU 0 instructions: 220000001 cycles: 67281649 heartbeat IPC: 1.23705 cumulative IPC: 1.16815 (Simulation time: 0 hr 11 min 14 sec) 
Heartbeat CPU 0 instructions: 230000000 cycles: 74310984 heartbeat IPC: 1.42261 cumulative IPC: 1.24221 (Simulation time: 0 hr 11 min 45 sec) 
Heartbeat CPU 0 instructions: 240000002 cycles: 81496842 heartbeat IPC: 1.39162 cumulative IPC: 1.27647 (Simulation time: 0 hr 12 min 14 sec) 
Heartbeat CPU 0 instructions: 250000000 cycles: 88381310 heartbeat IPC: 1.45254 cumulative IPC: 1.30819 (Simulation time: 0 hr 12 min 44 sec) 
Heartbeat CPU 0 instructions: 260000000 cycles: 94369681 heartbeat IPC: 1.6699 cumulative IPC: 1.35718 (Simulation time: 0 hr 13 min 13 sec) 
Heartbeat CPU 0 instructions: 270000000 cycles: 100159726 heartbeat IPC: 1.7271 cumulative IPC: 1.40002 (Simulation time: 0 hr 13 min 42 sec) 
Heartbeat CPU 0 instructions: 280000000 cycles: 108717408 heartbeat IPC: 1.16854 cumulative IPC: 1.36619 (Simulation time: 0 hr 14 min 14 sec) 
Heartbeat CPU 0 instructions: 290000001 cycles: 115761865 heartbeat IPC: 1.41956 cumulative IPC: 1.37192 (Simulation time: 0 hr 14 min 44 sec) 
Heartbeat CPU 0 instructions: 300000004 cycles: 122097571 heartbeat IPC: 1.57836 cumulative IPC: 1.3901 (Simulation time: 0 hr 15 min 13 sec) 
Heartbeat CPU 0 instructions: 310000003 cycles: 128783193 heartbeat IPC: 1.49575 cumulative IPC: 1.39909 (Simulation time: 0 hr 15 min 42 sec) 
Heartbeat CPU 0 instructions: 320000003 cycles: 136531695 heartbeat IPC: 1.29057 cumulative IPC: 1.38935 (Simulation time: 0 hr 16 min 12 sec) 
Heartbeat CPU 0 instructions: 330000003 cycles: 142786461 heartbeat IPC: 1.59878 cumulative IPC: 1.40349 (Simulation time: 0 hr 16 min 41 sec) 
Heartbeat CPU 0 instructions: 340000001 cycles: 150315113 heartbeat IPC: 1.32826 cumulative IPC: 1.39784 (Simulation time: 0 hr 17 min 12 sec) 
Heartbeat CPU 0 instructions: 350000002 cycles: 158298249 heartbeat IPC: 1.25264 cumulative IPC: 1.38712 (Simulation time: 0 hr 17 min 42 sec) 
Heartbeat CPU 0 instructions: 360000002 cycles: 166407189 heartbeat IPC: 1.23321 cumulative IPC: 1.37638 (Simulation time: 0 hr 18 min 13 sec) 
Heartbeat CPU 0 instructions: 370000001 cycles: 173721516 heartbeat IPC: 1.36718 cumulative IPC: 1.37584 (Simulation time: 0 hr 18 min 43 sec) 
Heartbeat CPU 0 instructions: 380000001 cycles: 180595272 heartbeat IPC: 1.45481 cumulative IPC: 1.38 (Simulation time: 0 hr 19 min 12 sec) 
Heartbeat CPU 0 instructions: 390000000 cycles: 188876410 heartbeat IPC: 1.20756 cumulative IPC: 1.36971 (Simulation time: 0 hr 19 min 43 sec) 
Heartbeat CPU 0 instructions: 400000001 cycles: 196771095 heartbeat IPC: 1.26668 cumulative IPC: 1.36416 (Simulation time: 0 hr 20 min 14 sec) 
Heartbeat CPU 0 instructions: 410000004 cycles: 204926609 heartbeat IPC: 1.22616 cumulative IPC: 1.35689 (Simulation time: 0 hr 20 min 44 sec) 
Heartbeat CPU 0 instructions: 420000000 cycles: 213266170 heartbeat IPC: 1.1991 cumulative IPC: 1.34882 (Simulation time: 0 hr 21 min 14 sec) 
Heartbeat CPU 0 instructions: 430000004 cycles: 221107933 heartbeat IPC: 1.27522 cumulative IPC: 1.34544 (Simulation time: 0 hr 21 min 44 sec) 
Heartbeat CPU 0 instructions: 440000002 cycles: 229036549 heartbeat IPC: 1.26125 cumulative IPC: 1.34171 (Simulation time: 0 hr 22 min 14 sec) 
Heartbeat CPU 0 instructions: 450000003 cycles: 236806505 heartbeat IPC: 1.28701 cumulative IPC: 1.33943 (Simulation time: 0 hr 22 min 44 sec) 
Heartbeat CPU 0 instructions: 460000000 cycles: 244528120 heartbeat IPC: 1.29507 cumulative IPC: 1.33767 (Simulation time: 0 hr 23 min 13 sec) 
Heartbeat CPU 0 instructions: 470000000 cycles: 252030675 heartbeat IPC: 1.33288 cumulative IPC: 1.33749 (Simulation time: 0 hr 23 min 43 sec) 
Heartbeat CPU 0 instructions: 480000002 cycles: 258801762 heartbeat IPC: 1.47687 cumulative IPC: 1.34202 (Simulation time: 0 hr 24 min 12 sec) 
Heartbeat CPU 0 instructions: 490000003 cycles: 265395970 heartbeat IPC: 1.51648 cumulative IPC: 1.34736 (Simulation time: 0 hr 24 min 41 sec) 
Heartbeat CPU 0 instructions: 500000004 cycles: 272500160 heartbeat IPC: 1.40762 cumulative IPC: 1.34929 (Simulation time: 0 hr 25 min 14 sec) 
Heartbeat CPU 0 instructions: 510000000 cycles: 286299392 heartbeat IPC: 0.724678 cumulative IPC: 1.31279 (Simulation time: 0 hr 26 min 36 sec) 
Heartbeat CPU 0 instructions: 520000002 cycles: 293718747 heartbeat IPC: 1.34783 cumulative IPC: 1.31385 (Simulation time: 0 hr 27 min 6 sec) 
Heartbeat CPU 0 instructions: 530000004 cycles: 300671208 heartbeat IPC: 1.43834 cumulative IPC: 1.31731 (Simulation time: 0 hr 27 min 35 sec) 
Heartbeat CPU 0 instructions: 540000000 cycles: 307515208 heartbeat IPC: 1.46113 cumulative IPC: 1.32113 (Simulation time: 0 hr 28 min 4 sec) 
Heartbeat CPU 0 instructions: 550000000 cycles: 316483446 heartbeat IPC: 1.11505 cumulative IPC: 1.31419 (Simulation time: 0 hr 28 min 34 sec) 
Heartbeat CPU 0 instructions: 560000003 cycles: 323705541 heartbeat IPC: 1.38464 cumulative IPC: 1.31605 (Simulation time: 0 hr 29 min 3 sec) 
Heartbeat CPU 0 instructions: 570000004 cycles: 330804434 heartbeat IPC: 1.40867 cumulative IPC: 1.3184 (Simulation time: 0 hr 29 min 32 sec) 
Heartbeat CPU 0 instructions: 580000001 cycles: 337870799 heartbeat IPC: 1.41515 cumulative IPC: 1.32077 (Simulation time: 0 hr 30 min 1 sec) 
Heartbeat CPU 0 instructions: 590000000 cycles: 345008066 heartbeat IPC: 1.4011 cumulative IPC: 1.32272 (Simulation time: 0 hr 30 min 30 sec) 
Heartbeat CPU 0 instructions: 600000000 cycles: 352259851 heartbeat IPC: 1.37897 cumulative IPC: 1.32407 (Simulation time: 0 hr 30 min 58 sec) 
Heartbeat CPU 0 instructions: 610000004 cycles: 359611031 heartbeat IPC: 1.36033 cumulative IPC: 1.32493 (Simulation time: 0 hr 31 min 27 sec) 
Heartbeat CPU 0 instructions: 620000001 cycles: 366481812 heartbeat IPC: 1.45544 cumulative IPC: 1.32776 (Simulation time: 0 hr 31 min 55 sec) 
Heartbeat CPU 0 instructions: 630000001 cycles: 373740628 heartbeat IPC: 1.37764 cumulative IPC: 1.32888 (Simulation time: 0 hr 32 min 24 sec) 
Heartbeat CPU 0 instructions: 640000003 cycles: 380739930 heartbeat IPC: 1.42871 cumulative IPC: 1.331 (Simulation time: 0 hr 32 min 53 sec) 
Heartbeat CPU 0 instructions: 650000001 cycles: 386886109 heartbeat IPC: 1.62703 cumulative IPC: 1.3364 (Simulation time: 0 hr 33 min 20 sec) 
Heartbeat CPU 0 instructions: 660000003 cycles: 394084742 heartbeat IPC: 1.38915 cumulative IPC: 1.3375 (Simulation time: 0 hr 33 min 49 sec) 
Heartbeat CPU 0 instructions: 670000004 cycles: 401322563 heartbeat IPC: 1.38163 cumulative IPC: 1.33841 (Simulation time: 0 hr 34 min 18 sec) 
Heartbeat CPU 0 instructions: 680000002 cycles: 407882703 heartbeat IPC: 1.52436 cumulative IPC: 1.34182 (Simulation time: 0 hr 34 min 47 sec) 
Heartbeat CPU 0 instructions: 690000003 cycles: 415821849 heartbeat IPC: 1.25958 cumulative IPC: 1.34004 (Simulation time: 0 hr 35 min 16 sec) 
Heartbeat CPU 0 instructions: 700000001 cycles: 423209050 heartbeat IPC: 1.35369 cumulative IPC: 1.34031 (Simulation time: 0 hr 35 min 45 sec) 
Heartbeat CPU 0 instructions: 710000000 cycles: 430824661 heartbeat IPC: 1.31309 cumulative IPC: 1.33976 (Simulation time: 0 hr 36 min 15 sec) 
Heartbeat CPU 0 instructions: 720000003 cycles: 438478212 heartbeat IPC: 1.30658 cumulative IPC: 1.33911 (Simulation time: 0 hr 36 min 45 sec) 
Heartbeat CPU 0 instructions: 730000004 cycles: 445801496 heartbeat IPC: 1.36551 cumulative IPC: 1.3396 (Simulation time: 0 hr 37 min 13 sec) 
Heartbeat CPU 0 instructions: 740000002 cycles: 453427869 heartbeat IPC: 1.31124 cumulative IPC: 1.33906 (Simulation time: 0 hr 37 min 41 sec) 
Heartbeat CPU 0 instructions: 750000003 cycles: 459526092 heartbeat IPC: 1.63982 cumulative IPC: 1.34354 (Simulation time: 0 hr 38 min 9 sec) 
Heartbeat CPU 0 instructions: 760000000 cycles: 465273710 heartbeat IPC: 1.73985 cumulative IPC: 1.34903 (Simulation time: 0 hr 38 min 37 sec) 
Heartbeat CPU 0 instructions: 770000002 cycles: 471060794 heartbeat IPC: 1.72799 cumulative IPC: 1.35424 (Simulation time: 0 hr 39 min 7 sec) 
Heartbeat CPU 0 instructions: 780000004 cycles: 476718360 heartbeat IPC: 1.76754 cumulative IPC: 1.35972 (Simulation time: 0 hr 39 min 38 sec) 
Heartbeat CPU 0 instructions: 790000000 cycles: 482542130 heartbeat IPC: 1.7171 cumulative IPC: 1.36454 (Simulation time: 0 hr 40 min 8 sec) 
Heartbeat CPU 0 instructions: 800000002 cycles: 488348291 heartbeat IPC: 1.72231 cumulative IPC: 1.36928 (Simulation time: 0 hr 40 min 39 sec) 
Heartbeat CPU 0 instructions: 810000002 cycles: 494196947 heartbeat IPC: 1.70979 cumulative IPC: 1.37376 (Simulation time: 0 hr 41 min 9 sec) 
Heartbeat CPU 0 instructions: 820000000 cycles: 499963322 heartbeat IPC: 1.73419 cumulative IPC: 1.37838 (Simulation time: 0 hr 41 min 39 sec) 
Heartbeat CPU 0 instructions: 830000000 cycles: 505883345 heartbeat IPC: 1.68918 cumulative IPC: 1.38242 (Simulation time: 0 hr 42 min 10 sec) 
Heartbeat CPU 0 instructions: 840000002 cycles: 511535792 heartbeat IPC: 1.76915 cumulative IPC: 1.38716 (Simulation time: 0 hr 42 min 40 sec) 
Heartbeat CPU 0 instructions: 850000004 cycles: 517514674 heartbeat IPC: 1.67255 cumulative IPC: 1.39081 (Simulation time: 0 hr 43 min 11 sec) 
Heartbeat CPU 0 instructions: 860000004 cycles: 523295569 heartbeat IPC: 1.72984 cumulative IPC: 1.39495 (Simulation time: 0 hr 43 min 42 sec) 
Heartbeat CPU 0 instructions: 870000000 cycles: 529148947 heartbeat IPC: 1.70841 cumulative IPC: 1.39878 (Simulation time: 0 hr 44 min 12 sec) 
Heartbeat CPU 0 instructions: 880000000 cycles: 534860787 heartbeat IPC: 1.75075 cumulative IPC: 1.40293 (Simulation time: 0 hr 44 min 42 sec) 
Heartbeat CPU 0 instructions: 890000003 cycles: 540521456 heartbeat IPC: 1.76658 cumulative IPC: 1.40713 (Simulation time: 0 hr 45 min 13 sec) 
Heartbeat CPU 0 instructions: 900000000 cycles: 546318446 heartbeat IPC: 1.72503 cumulative IPC: 1.41084 (Simulation time: 0 hr 45 min 45 sec) 
Heartbeat CPU 0 instructions: 910000004 cycles: 552043689 heartbeat IPC: 1.74665 cumulative IPC: 1.41467 (Simulation time: 0 hr 46 min 16 sec) 
Heartbeat CPU 0 instructions: 920000001 cycles: 557828960 heartbeat IPC: 1.72853 cumulative IPC: 1.41825 (Simulation time: 0 hr 46 min 47 sec) 
Heartbeat CPU 0 instructions: 930000001 cycles: 564717163 heartbeat IPC: 1.45176 cumulative IPC: 1.4187 (Simulation time: 0 hr 47 min 19 sec) 
Heartbeat CPU 0 instructions: 940000000 cycles: 571894456 heartbeat IPC: 1.39328 cumulative IPC: 1.41835 (Simulation time: 0 hr 47 min 53 sec) 
Heartbeat CPU 0 instructions: 950000002 cycles: 579983404 heartbeat IPC: 1.23625 cumulative IPC: 1.41557 (Simulation time: 0 hr 48 min 27 sec) 
Heartbeat CPU 0 instructions: 960000004 cycles: 585788621 heartbeat IPC: 1.72259 cumulative IPC: 1.41889 (Simulation time: 0 hr 48 min 57 sec) 
Heartbeat CPU 0 instructions: 970000001 cycles: 592400163 heartbeat IPC: 1.51251 cumulative IPC: 1.42004 (Simulation time: 0 hr 49 min 28 sec) 
Heartbeat CPU 0 instructions: 980000001 cycles: 601175408 heartbeat IPC: 1.13957 cumulative IPC: 1.41557 (Simulation time: 0 hr 50 min 2 sec) 
Heartbeat CPU 0 instructions: 990000000 cycles: 610473653 heartbeat IPC: 1.07547 cumulative IPC: 1.40993 (Simulation time: 0 hr 50 min 35 sec) 
Heartbeat CPU 0 instructions: 1000000000 cycles: 617896420 heartbeat IPC: 1.34721 cumulative IPC: 1.40911 (Simulation time: 0 hr 51 min 9 sec) 
Heartbeat CPU 0 instructions: 1010000004 cycles: 624652386 heartbeat IPC: 1.48017 cumulative IPC: 1.40994 (Simulation time: 0 hr 51 min 40 sec) 
Heartbeat CPU 0 instructions: 1020000000 cycles: 634455979 heartbeat IPC: 1.02003 cumulative IPC: 1.4034 (Simulation time: 0 hr 52 min 14 sec) 
Heartbeat CPU 0 instructions: 1030000003 cycles: 645340082 heartbeat IPC: 0.918771 cumulative IPC: 1.39454 (Simulation time: 0 hr 52 min 49 sec) 
Heartbeat CPU 0 instructions: 1040000003 cycles: 656394045 heartbeat IPC: 0.904653 cumulative IPC: 1.3856 (Simulation time: 0 hr 53 min 25 sec) 
Heartbeat CPU 0 instructions: 1050000000 cycles: 666755924 heartbeat IPC: 0.965076 cumulative IPC: 1.37854 (Simulation time: 0 hr 54 min 0 sec) 
Heartbeat CPU 0 instructions: 1060000000 cycles: 675575101 heartbeat IPC: 1.13389 cumulative IPC: 1.37509 (Simulation time: 0 hr 54 min 34 sec) 
Heartbeat CPU 0 instructions: 1070000001 cycles: 682215844 heartbeat IPC: 1.50586 cumulative IPC: 1.37646 (Simulation time: 0 hr 55 min 5 sec) 
Heartbeat CPU 0 instructions: 1080000004 cycles: 688358570 heartbeat IPC: 1.62794 cumulative IPC: 1.37888 (Simulation time: 0 hr 55 min 36 sec) 
Heartbeat CPU 0 instructions: 1090000002 cycles: 697092156 heartbeat IPC: 1.145 cumulative IPC: 1.37572 (Simulation time: 0 hr 56 min 10 sec) 
Heartbeat CPU 0 instructions: 1100000004 cycles: 705397254 heartbeat IPC: 1.20408 cumulative IPC: 1.37355 (Simulation time: 0 hr 56 min 43 sec) 
Heartbeat CPU 0 instructions: 1110000000 cycles: 715673777 heartbeat IPC: 0.973091 cumulative IPC: 1.36737 (Simulation time: 0 hr 57 min 18 sec) 
Heartbeat CPU 0 instructions: 1120000004 cycles: 725036430 heartbeat IPC: 1.06807 cumulative IPC: 1.36321 (Simulation time: 0 hr 57 min 52 sec) 
Heartbeat CPU 0 instructions: 1130000002 cycles: 731665484 heartbeat IPC: 1.50851 cumulative IPC: 1.36463 (Simulation time: 0 hr 58 min 23 sec) 
Heartbeat CPU 0 instructions: 1140000003 cycles: 739008162 heartbeat IPC: 1.3619 cumulative IPC: 1.3646 (Simulation time: 0 hr 58 min 57 sec) 
Heartbeat CPU 0 instructions: 1150000003 cycles: 745246262 heartbeat IPC: 1.60305 cumulative IPC: 1.36674 (Simulation time: 0 hr 59 min 29 sec) 
Heartbeat CPU 0 instructions: 1160000003 cycles: 751537292 heartbeat IPC: 1.58956 cumulative IPC: 1.36874 (Simulation time: 1 hr 0 min 1 sec) 
Heartbeat CPU 0 instructions: 1170000001 cycles: 757728002 heartbeat IPC: 1.61532 cumulative IPC: 1.37089 (Simulation time: 1 hr 0 min 34 sec) 
Heartbeat CPU 0 instructions: 1180000002 cycles: 763916638 heartbeat IPC: 1.61587 cumulative IPC: 1.37302 (Simulation time: 1 hr 1 min 6 sec) 
Heartbeat CPU 0 instructions: 1190000004 cycles: 770190775 heartbeat IPC: 1.59385 cumulative IPC: 1.37494 (Simulation time: 1 hr 1 min 39 sec) 
Heartbeat CPU 0 instructions: 1200000004 cycles: 777898719 heartbeat IPC: 1.29736 cumulative IPC: 1.37412 (Simulation time: 1 hr 2 min 12 sec) 
Finished CPU 0 instructions: 1000000002 cycles: 727738198 cumulative IPC: 1.37412 (Simulation time: 1 hr 2 min 12 sec) 

ChampSim completed all CPUs

Region of Interest Statistics

CPU 0 cumulative IPC: 1.37412 instructions: 1000000002 cycles: 727738198
cpu0_DTLB TOTAL     ACCESS:  176562206  HIT:  171598056  MISS:    4964150
cpu0_DTLB LOAD      ACCESS:  138834005  HIT:  135872123  MISS:    2961882
cpu0_DTLB RFO       ACCESS:   37728201  HIT:   35725933  MISS:    2002268
cpu0_DTLB PREFETCH  ACCESS:          0  HIT:          0  MISS:          0
cpu0_DTLB WRITEBACK ACCESS:          0  HIT:          0  MISS:          0
cpu0_DTLB TRANSLATION ACCESS:          0  HIT:          0  MISS:          0
cpu0_DTLB PREFETCH  REQUESTED:          0  ISSUED:          0  USEFUL:          0  USELESS:          0
cpu0_DTLB AVERAGE MISS LATENCY: 11.474 cycles
cpu0_ITLB TOTAL     ACCESS:   85839110  HIT:   85839107  MISS:          3
cpu0_ITLB LOAD      ACCESS:   85839110  HIT:   85839107  MISS:          3
cpu0_ITLB RFO       ACCESS:          0  HIT:          0  MISS:          0
cpu0_ITLB PREFETCH  ACCESS:          0  HIT:          0  MISS:          0
cpu0_ITLB WRITEBACK ACCESS:          0  HIT:          0  MISS:          0
cpu0_ITLB TRANSLATION ACCESS:          0  HIT:          0  MISS:          0
cpu0_ITLB PREFETCH  REQUESTED:          0  ISSUED:          0  USEFUL:          0  USELESS:          0
cpu0_ITLB AVERAGE MISS LATENCY: 222.667 cycles
cpu0_L1I TOTAL     ACCESS:   18007083  HIT:   18006383  MISS:        700
cpu0_L1I LOAD      ACCESS:   18007083  HIT:   18006383  MISS:        700
cpu0_L1I RFO       ACCESS:          0  HIT:          0  MISS:          0
cpu0_L1I PREFETCH  ACCESS:          0  HIT:          0  MISS:          0
cpu0_L1I WRITEBACK ACCESS:          0  HIT:          0  MISS:          0
cpu0_L1I TRANSLATION ACCESS:          0  HIT:          0  MISS:          0
cpu0_L1I PREFETCH  REQUESTED:          0  ISSUED:          0  USEFUL:          0  USELESS:          0
cpu0_L1I AVERAGE MISS LATENCY: 72.7814 cycles
cpu0_STLB TOTAL     ACCESS:    4964153  HIT:    4947441  MISS:      16712
cpu0_STLB LOAD      ACCESS:    2961885  HIT:    2949258  MISS:      12627
cpu0_STLB RFO       ACCESS:    2002268  HIT:    1998183  MISS:       4085
cpu0_STLB PREFETCH  ACCESS:          0  HIT:          0  MISS:          0
cpu0_STLB WRITEBACK ACCESS:          0  HIT:          0  MISS:          0
cpu0_STLB TRANSLATION ACCESS:          0  HIT:          0  MISS:          0
cpu0_STLB PREFETCH  REQUESTED:          0  ISSUED:          0  USEFUL:          0  USELESS:          0
cpu0_STLB AVERAGE MISS LATENCY: 137.971 cycles
cpu0_L1D TOTAL     ACCESS:  185900619  HIT:  180875671  MISS:    5024948
cpu0_L1D LOAD      ACCESS:  122527726  HIT:  118763426  MISS:    3764300
cpu0_L1D RFO       ACCESS:   63356247  HIT:   62103194  MISS:    1253053
cpu0_L1D PREFETCH  ACCESS:          0  HIT:          0  MISS:          0
cpu0_L1D WRITEBACK ACCESS:          0  HIT:          0  MISS:          0
cpu0_L1D TRANSLATION ACCESS:      16646  HIT:       9051  MISS:       7595
cpu0_L1D PREFETCH  REQUESTED:          0  ISSUED:          0  USEFUL:          0  USELESS:          0
cpu0_L1D AVERAGE MISS LATENCY: 75.0038 cycles
cpu0_L2C TOTAL     ACCESS:    9201622  HIT:    7308234  MISS:    1893388
cpu0_L2C LOAD      ACCESS:    3764831  HIT:    2417404  MISS:    1347427
cpu0_L2C RFO       ACCESS:    1252830  HIT:     802776  MISS:     450054
cpu0_L2C PREFETCH  ACCESS:     493393  HIT:     403514  MISS:      89879
cpu0_L2C WRITEBACK ACCESS:    3682973  HIT:    3677286  MISS:       5687
cpu0_L2C TRANSLATION ACCESS:       7595  HIT:       7254  MISS:        341
cpu0_L2C PREFETCH  REQUESTED:    1374652  ISSUED:    1223589  USEFUL:     127126  USELESS:      14386
cpu0_L2C AVERAGE MISS LATENCY: 160.238 cycles
LLC TOTAL     ACCESS:    3718897  HIT:    2337950  MISS:    1380947
LLC LOAD      ACCESS:    1295744  HIT:     595593  MISS:     700151
LLC RFO       ACCESS:     450046  HIT:      63965  MISS:     386081
LLC PREFETCH  ACCESS:     644432  HIT:     363118  MISS:     281314
LLC WRITEBACK ACCESS:    1328334  HIT:    1315012  MISS:      13322
LLC TRANSLATION ACCESS:        341  HIT:        262  MISS:         79
LLC PREFETCH  REQUESTED:          0  ISSUED:          0  USEFUL:          0  USELESS:          0
LLC AVERAGE MISS LATENCY: 268.676 cycles

DRAM Statistics
 CHANNEL 0
 RQ ROW_BUFFER_HIT:      94700  ROW_BUFFER_MISS:    1272881
 DBUS AVG_CONGESTED_CYCLE:    3.86948
 WQ ROW_BUFFER_HIT:     178263  ROW_BUFFER_MISS:     736261  FULL:          0


CPU 0 Branch Prediction Accuracy: 89.8884% MPKI: 15.2201 Average ROB Occupancy at Mispredict: 40.1692
Branch type MPKI
BRANCH_DIRECT_JUMP: 8e-06
BRANCH_INDIRECT: 0.731136
BRANCH_CONDITIONAL: 14.4871
BRANCH_DIRECT_CALL: 5e-06
BRANCH_INDIRECT_CALL: 0.00188
BRANCH_RETURN: 5e-06

***************** Done with 657.xz_s-3167B.champsimtrace.xz using spp-dev-agg, on Mon Apr 18 21:41:36 CDT 2022 ******************
