Started running file 631.deepsjeng_s-928B.champsimtrace.xz at time Mon Apr 18 14:46:35 CDT 2022 with prefetcher spp-dev-agg

*** ChampSim Multicore Out-of-Order Simulator ***

Warmup Instructions: 200000000
Simulation Instructions: 1000000000
Number of CPUs: 1
Off-chip DRAM Size: 4 GiB Channels: 1 Width: 64-bit Data Rate: 3200 MT/s

VirtualMemory physical capacity: 8588881920 num_ppages: 2096895
VirtualMemory page size: 4096 log2_page_size: 12

CPU 0 runs /home/faculty/p/pgratz/dpc3_traces/631.deepsjeng_s-928B.champsimtrace.xz
CPU 0 Bimodal branch predictor
Basic BTB sets: 1024 ways: 8 indirect buffer size: 4096 RAS size: 64
SPP-DEV original prefetcher
Heartbeat CPU 0 instructions: 10000002 cycles: 2500172 heartbeat IPC: 3.99973 cumulative IPC: 3.99973 (Simulation time: 0 hr 0 min 32 sec) 
Heartbeat CPU 0 instructions: 20000002 cycles: 5000172 heartbeat IPC: 4 cumulative IPC: 3.99986 (Simulation time: 0 hr 1 min 5 sec) 
Heartbeat CPU 0 instructions: 30000002 cycles: 7500172 heartbeat IPC: 4 cumulative IPC: 3.99991 (Simulation time: 0 hr 1 min 37 sec) 
Heartbeat CPU 0 instructions: 40000002 cycles: 10000172 heartbeat IPC: 4 cumulative IPC: 3.99993 (Simulation time: 0 hr 2 min 10 sec) 
Heartbeat CPU 0 instructions: 50000002 cycles: 12500172 heartbeat IPC: 4 cumulative IPC: 3.99995 (Simulation time: 0 hr 2 min 42 sec) 
Heartbeat CPU 0 instructions: 60000002 cycles: 15000172 heartbeat IPC: 4 cumulative IPC: 3.99995 (Simulation time: 0 hr 3 min 15 sec) 
Heartbeat CPU 0 instructions: 70000002 cycles: 17500172 heartbeat IPC: 4 cumulative IPC: 3.99996 (Simulation time: 0 hr 3 min 47 sec) 
Heartbeat CPU 0 instructions: 80000002 cycles: 20000172 heartbeat IPC: 4 cumulative IPC: 3.99997 (Simulation time: 0 hr 4 min 19 sec) 
Heartbeat CPU 0 instructions: 90000002 cycles: 22500172 heartbeat IPC: 4 cumulative IPC: 3.99997 (Simulation time: 0 hr 4 min 52 sec) 
Heartbeat CPU 0 instructions: 100000002 cycles: 25000179 heartbeat IPC: 3.99999 cumulative IPC: 3.99997 (Simulation time: 0 hr 5 min 24 sec) 
Heartbeat CPU 0 instructions: 110000002 cycles: 27500179 heartbeat IPC: 4 cumulative IPC: 3.99997 (Simulation time: 0 hr 5 min 57 sec) 
Heartbeat CPU 0 instructions: 120000002 cycles: 30000179 heartbeat IPC: 4 cumulative IPC: 3.99998 (Simulation time: 0 hr 6 min 29 sec) 
Heartbeat CPU 0 instructions: 130000002 cycles: 32500179 heartbeat IPC: 4 cumulative IPC: 3.99998 (Simulation time: 0 hr 7 min 2 sec) 
Heartbeat CPU 0 instructions: 140000002 cycles: 35000179 heartbeat IPC: 4 cumulative IPC: 3.99998 (Simulation time: 0 hr 7 min 34 sec) 
Heartbeat CPU 0 instructions: 150000002 cycles: 37500179 heartbeat IPC: 4 cumulative IPC: 3.99998 (Simulation time: 0 hr 8 min 7 sec) 
Heartbeat CPU 0 instructions: 160000002 cycles: 40000179 heartbeat IPC: 4 cumulative IPC: 3.99998 (Simulation time: 0 hr 8 min 39 sec) 
Heartbeat CPU 0 instructions: 170000002 cycles: 42500179 heartbeat IPC: 4 cumulative IPC: 3.99998 (Simulation time: 0 hr 9 min 12 sec) 
Heartbeat CPU 0 instructions: 180000000 cycles: 45000180 heartbeat IPC: 4 cumulative IPC: 3.99998 (Simulation time: 0 hr 9 min 45 sec) 
Heartbeat CPU 0 instructions: 190000003 cycles: 47500196 heartbeat IPC: 3.99998 cumulative IPC: 3.99998 (Simulation time: 0 hr 10 min 18 sec) 
Heartbeat CPU 0 instructions: 200000003 cycles: 50000196 heartbeat IPC: 4 cumulative IPC: 3.99998 (Simulation time: 0 hr 10 min 50 sec) 

Warmup complete CPU 0 instructions: 200000003 cycles: 50000196 (Simulation time: 0 hr 10 min 50 sec) 

Heartbeat CPU 0 instructions: 210000000 cycles: 57893624 heartbeat IPC: 1.26688 cumulative IPC: 1.26688 (Simulation time: 0 hr 11 min 25 sec) 
Heartbeat CPU 0 instructions: 220000003 cycles: 66001952 heartbeat IPC: 1.2333 cumulative IPC: 1.24986 (Simulation time: 0 hr 11 min 59 sec) 
Heartbeat CPU 0 instructions: 230000001 cycles: 74011645 heartbeat IPC: 1.24849 cumulative IPC: 1.2494 (Simulation time: 0 hr 12 min 34 sec) 
Heartbeat CPU 0 instructions: 240000003 cycles: 81975510 heartbeat IPC: 1.25567 cumulative IPC: 1.25096 (Simulation time: 0 hr 13 min 8 sec) 
Heartbeat CPU 0 instructions: 250000000 cycles: 89870626 heartbeat IPC: 1.26661 cumulative IPC: 1.25406 (Simulation time: 0 hr 13 min 43 sec) 
Heartbeat CPU 0 instructions: 260000000 cycles: 97827375 heartbeat IPC: 1.25679 cumulative IPC: 1.25452 (Simulation time: 0 hr 14 min 17 sec) 
Heartbeat CPU 0 instructions: 270000002 cycles: 105764272 heartbeat IPC: 1.25994 cumulative IPC: 1.25529 (Simulation time: 0 hr 14 min 51 sec) 
Heartbeat CPU 0 instructions: 280000001 cycles: 113781860 heartbeat IPC: 1.24726 cumulative IPC: 1.25428 (Simulation time: 0 hr 15 min 26 sec) 
Heartbeat CPU 0 instructions: 290000000 cycles: 121661461 heartbeat IPC: 1.2691 cumulative IPC: 1.25591 (Simulation time: 0 hr 16 min 1 sec) 
Heartbeat CPU 0 instructions: 300000002 cycles: 129734414 heartbeat IPC: 1.2387 cumulative IPC: 1.25417 (Simulation time: 0 hr 16 min 34 sec) 
Heartbeat CPU 0 instructions: 310000000 cycles: 137850629 heartbeat IPC: 1.2321 cumulative IPC: 1.25213 (Simulation time: 0 hr 17 min 8 sec) 
Heartbeat CPU 0 instructions: 320000000 cycles: 145888427 heartbeat IPC: 1.24412 cumulative IPC: 1.25146 (Simulation time: 0 hr 17 min 43 sec) 
Heartbeat CPU 0 instructions: 330000000 cycles: 154038545 heartbeat IPC: 1.22698 cumulative IPC: 1.24954 (Simulation time: 0 hr 18 min 17 sec) 
Heartbeat CPU 0 instructions: 340000004 cycles: 162054353 heartbeat IPC: 1.24754 cumulative IPC: 1.2494 (Simulation time: 0 hr 18 min 51 sec) 
Heartbeat CPU 0 instructions: 350000002 cycles: 170010631 heartbeat IPC: 1.25687 cumulative IPC: 1.24989 (Simulation time: 0 hr 19 min 25 sec) 
Heartbeat CPU 0 instructions: 360000000 cycles: 177852385 heartbeat IPC: 1.27522 cumulative IPC: 1.25145 (Simulation time: 0 hr 19 min 59 sec) 
Heartbeat CPU 0 instructions: 370000002 cycles: 185663364 heartbeat IPC: 1.28025 cumulative IPC: 1.2531 (Simulation time: 0 hr 20 min 33 sec) 
Heartbeat CPU 0 instructions: 380000000 cycles: 193572898 heartbeat IPC: 1.2643 cumulative IPC: 1.25372 (Simulation time: 0 hr 21 min 7 sec) 
Heartbeat CPU 0 instructions: 390000000 cycles: 201621538 heartbeat IPC: 1.24245 cumulative IPC: 1.25312 (Simulation time: 0 hr 21 min 42 sec) 
Heartbeat CPU 0 instructions: 400000001 cycles: 209646759 heartbeat IPC: 1.24607 cumulative IPC: 1.25277 (Simulation time: 0 hr 22 min 16 sec) 
Heartbeat CPU 0 instructions: 410000003 cycles: 217909981 heartbeat IPC: 1.21018 cumulative IPC: 1.25067 (Simulation time: 0 hr 22 min 50 sec) 
Heartbeat CPU 0 instructions: 420000000 cycles: 226001664 heartbeat IPC: 1.23584 cumulative IPC: 1.24999 (Simulation time: 0 hr 23 min 24 sec) 
Heartbeat CPU 0 instructions: 430000004 cycles: 234063385 heartbeat IPC: 1.24043 cumulative IPC: 1.24957 (Simulation time: 0 hr 23 min 58 sec) 
Heartbeat CPU 0 instructions: 440000002 cycles: 242111470 heartbeat IPC: 1.24253 cumulative IPC: 1.24928 (Simulation time: 0 hr 24 min 33 sec) 
Heartbeat CPU 0 instructions: 450000003 cycles: 250163579 heartbeat IPC: 1.24191 cumulative IPC: 1.24898 (Simulation time: 0 hr 25 min 7 sec) 
Heartbeat CPU 0 instructions: 460000001 cycles: 258263846 heartbeat IPC: 1.23453 cumulative IPC: 1.24842 (Simulation time: 0 hr 25 min 41 sec) 
Heartbeat CPU 0 instructions: 470000000 cycles: 266263518 heartbeat IPC: 1.25005 cumulative IPC: 1.24848 (Simulation time: 0 hr 26 min 15 sec) 
Heartbeat CPU 0 instructions: 480000002 cycles: 274338927 heartbeat IPC: 1.23833 cumulative IPC: 1.24811 (Simulation time: 0 hr 26 min 50 sec) 
Heartbeat CPU 0 instructions: 490000001 cycles: 282197012 heartbeat IPC: 1.27257 cumulative IPC: 1.24894 (Simulation time: 0 hr 27 min 24 sec) 
Heartbeat CPU 0 instructions: 500000002 cycles: 290110115 heartbeat IPC: 1.26373 cumulative IPC: 1.24943 (Simulation time: 0 hr 27 min 58 sec) 
Heartbeat CPU 0 instructions: 510000004 cycles: 297957490 heartbeat IPC: 1.27431 cumulative IPC: 1.25022 (Simulation time: 0 hr 28 min 33 sec) 
Heartbeat CPU 0 instructions: 520000001 cycles: 305829810 heartbeat IPC: 1.27027 cumulative IPC: 1.25083 (Simulation time: 0 hr 29 min 7 sec) 
Heartbeat CPU 0 instructions: 530000003 cycles: 313706516 heartbeat IPC: 1.26957 cumulative IPC: 1.25139 (Simulation time: 0 hr 29 min 41 sec) 
Heartbeat CPU 0 instructions: 540000000 cycles: 321674857 heartbeat IPC: 1.25497 cumulative IPC: 1.2515 (Simulation time: 0 hr 30 min 15 sec) 
Heartbeat CPU 0 instructions: 550000001 cycles: 329563190 heartbeat IPC: 1.2677 cumulative IPC: 1.25195 (Simulation time: 0 hr 30 min 49 sec) 
Heartbeat CPU 0 instructions: 560000003 cycles: 337405868 heartbeat IPC: 1.27507 cumulative IPC: 1.25258 (Simulation time: 0 hr 31 min 23 sec) 
Heartbeat CPU 0 instructions: 570000002 cycles: 345052857 heartbeat IPC: 1.3077 cumulative IPC: 1.25401 (Simulation time: 0 hr 31 min 57 sec) 
Heartbeat CPU 0 instructions: 580000000 cycles: 352784904 heartbeat IPC: 1.29332 cumulative IPC: 1.25502 (Simulation time: 0 hr 32 min 31 sec) 
Heartbeat CPU 0 instructions: 590000000 cycles: 360755118 heartbeat IPC: 1.25467 cumulative IPC: 1.25501 (Simulation time: 0 hr 33 min 6 sec) 
Heartbeat CPU 0 instructions: 600000000 cycles: 368736623 heartbeat IPC: 1.2529 cumulative IPC: 1.25496 (Simulation time: 0 hr 33 min 40 sec) 
Heartbeat CPU 0 instructions: 610000002 cycles: 376731107 heartbeat IPC: 1.25086 cumulative IPC: 1.25486 (Simulation time: 0 hr 34 min 14 sec) 
Heartbeat CPU 0 instructions: 620000003 cycles: 384663662 heartbeat IPC: 1.26063 cumulative IPC: 1.25499 (Simulation time: 0 hr 34 min 47 sec) 
Heartbeat CPU 0 instructions: 630000000 cycles: 392627547 heartbeat IPC: 1.25567 cumulative IPC: 1.25501 (Simulation time: 0 hr 35 min 21 sec) 
Heartbeat CPU 0 instructions: 640000000 cycles: 400523661 heartbeat IPC: 1.26645 cumulative IPC: 1.25527 (Simulation time: 0 hr 35 min 55 sec) 
Heartbeat CPU 0 instructions: 650000000 cycles: 408433533 heartbeat IPC: 1.26424 cumulative IPC: 1.25546 (Simulation time: 0 hr 36 min 29 sec) 
Heartbeat CPU 0 instructions: 660000002 cycles: 416196681 heartbeat IPC: 1.28814 cumulative IPC: 1.25616 (Simulation time: 0 hr 37 min 4 sec) 
Heartbeat CPU 0 instructions: 670000001 cycles: 423865990 heartbeat IPC: 1.3039 cumulative IPC: 1.25714 (Simulation time: 0 hr 37 min 38 sec) 
Heartbeat CPU 0 instructions: 680000004 cycles: 431678306 heartbeat IPC: 1.28003 cumulative IPC: 1.2576 (Simulation time: 0 hr 38 min 12 sec) 
Heartbeat CPU 0 instructions: 690000003 cycles: 439700559 heartbeat IPC: 1.24653 cumulative IPC: 1.25738 (Simulation time: 0 hr 38 min 46 sec) 
Heartbeat CPU 0 instructions: 700000004 cycles: 447743418 heartbeat IPC: 1.24334 cumulative IPC: 1.25709 (Simulation time: 0 hr 39 min 20 sec) 
Heartbeat CPU 0 instructions: 710000004 cycles: 455602525 heartbeat IPC: 1.27241 cumulative IPC: 1.25739 (Simulation time: 0 hr 39 min 54 sec) 
Heartbeat CPU 0 instructions: 720000001 cycles: 463386576 heartbeat IPC: 1.28468 cumulative IPC: 1.2579 (Simulation time: 0 hr 40 min 28 sec) 
Heartbeat CPU 0 instructions: 730000000 cycles: 471270979 heartbeat IPC: 1.26833 cumulative IPC: 1.2581 (Simulation time: 0 hr 41 min 2 sec) 
Heartbeat CPU 0 instructions: 740000000 cycles: 479053016 heartbeat IPC: 1.28501 cumulative IPC: 1.25859 (Simulation time: 0 hr 41 min 36 sec) 
Heartbeat CPU 0 instructions: 750000003 cycles: 486985896 heartbeat IPC: 1.26058 cumulative IPC: 1.25862 (Simulation time: 0 hr 42 min 10 sec) 
Heartbeat CPU 0 instructions: 760000001 cycles: 494941903 heartbeat IPC: 1.25691 cumulative IPC: 1.25859 (Simulation time: 0 hr 42 min 43 sec) 
Heartbeat CPU 0 instructions: 770000001 cycles: 502954530 heartbeat IPC: 1.24803 cumulative IPC: 1.2584 (Simulation time: 0 hr 43 min 17 sec) 
Heartbeat CPU 0 instructions: 780000004 cycles: 511092853 heartbeat IPC: 1.22875 cumulative IPC: 1.25788 (Simulation time: 0 hr 43 min 51 sec) 
Heartbeat CPU 0 instructions: 790000001 cycles: 519119689 heartbeat IPC: 1.24582 cumulative IPC: 1.25768 (Simulation time: 0 hr 44 min 26 sec) 
Heartbeat CPU 0 instructions: 800000002 cycles: 526968305 heartbeat IPC: 1.27411 cumulative IPC: 1.25795 (Simulation time: 0 hr 45 min 0 sec) 
Heartbeat CPU 0 instructions: 810000000 cycles: 534790520 heartbeat IPC: 1.27841 cumulative IPC: 1.25828 (Simulation time: 0 hr 45 min 34 sec) 
Heartbeat CPU 0 instructions: 820000000 cycles: 542509766 heartbeat IPC: 1.29546 cumulative IPC: 1.25886 (Simulation time: 0 hr 46 min 8 sec) 
Heartbeat CPU 0 instructions: 830000000 cycles: 550247502 heartbeat IPC: 1.29237 cumulative IPC: 1.25938 (Simulation time: 0 hr 46 min 42 sec) 
Heartbeat CPU 0 instructions: 840000003 cycles: 557946488 heartbeat IPC: 1.29887 cumulative IPC: 1.25998 (Simulation time: 0 hr 47 min 16 sec) 
Heartbeat CPU 0 instructions: 850000000 cycles: 565805293 heartbeat IPC: 1.27246 cumulative IPC: 1.26017 (Simulation time: 0 hr 47 min 50 sec) 
Heartbeat CPU 0 instructions: 860000001 cycles: 573583714 heartbeat IPC: 1.28561 cumulative IPC: 1.26054 (Simulation time: 0 hr 48 min 24 sec) 
Heartbeat CPU 0 instructions: 870000000 cycles: 581279307 heartbeat IPC: 1.29944 cumulative IPC: 1.26111 (Simulation time: 0 hr 48 min 58 sec) 
Heartbeat CPU 0 instructions: 880000003 cycles: 589169154 heartbeat IPC: 1.26745 cumulative IPC: 1.2612 (Simulation time: 0 hr 49 min 32 sec) 
Heartbeat CPU 0 instructions: 890000003 cycles: 597011131 heartbeat IPC: 1.27519 cumulative IPC: 1.2614 (Simulation time: 0 hr 50 min 5 sec) 
Heartbeat CPU 0 instructions: 900000000 cycles: 604791896 heartbeat IPC: 1.28522 cumulative IPC: 1.26173 (Simulation time: 0 hr 50 min 39 sec) 
Heartbeat CPU 0 instructions: 910000001 cycles: 612500753 heartbeat IPC: 1.29721 cumulative IPC: 1.26222 (Simulation time: 0 hr 51 min 12 sec) 
Heartbeat CPU 0 instructions: 920000004 cycles: 620269325 heartbeat IPC: 1.28724 cumulative IPC: 1.26256 (Simulation time: 0 hr 51 min 46 sec) 
Heartbeat CPU 0 instructions: 930000002 cycles: 627922290 heartbeat IPC: 1.30668 cumulative IPC: 1.26315 (Simulation time: 0 hr 52 min 20 sec) 
Heartbeat CPU 0 instructions: 940000004 cycles: 635628388 heartbeat IPC: 1.29767 cumulative IPC: 1.2636 (Simulation time: 0 hr 52 min 53 sec) 
Heartbeat CPU 0 instructions: 950000000 cycles: 643310350 heartbeat IPC: 1.30175 cumulative IPC: 1.26409 (Simulation time: 0 hr 53 min 26 sec) 
Heartbeat CPU 0 instructions: 960000001 cycles: 651178943 heartbeat IPC: 1.27088 cumulative IPC: 1.26418 (Simulation time: 0 hr 53 min 59 sec) 
Heartbeat CPU 0 instructions: 970000002 cycles: 658944499 heartbeat IPC: 1.28774 cumulative IPC: 1.26448 (Simulation time: 0 hr 54 min 32 sec) 
Heartbeat CPU 0 instructions: 980000000 cycles: 666726416 heartbeat IPC: 1.28503 cumulative IPC: 1.26474 (Simulation time: 0 hr 55 min 5 sec) 
Heartbeat CPU 0 instructions: 990000003 cycles: 674390072 heartbeat IPC: 1.30486 cumulative IPC: 1.26524 (Simulation time: 0 hr 55 min 39 sec) 
Heartbeat CPU 0 instructions: 1000000003 cycles: 682339972 heartbeat IPC: 1.25788 cumulative IPC: 1.26514 (Simulation time: 0 hr 56 min 13 sec) 
Heartbeat CPU 0 instructions: 1010000001 cycles: 689907963 heartbeat IPC: 1.32135 cumulative IPC: 1.26581 (Simulation time: 0 hr 56 min 47 sec) 
Heartbeat CPU 0 instructions: 1020000002 cycles: 697550652 heartbeat IPC: 1.30844 cumulative IPC: 1.26631 (Simulation time: 0 hr 57 min 20 sec) 
Heartbeat CPU 0 instructions: 1030000000 cycles: 705406532 heartbeat IPC: 1.27293 cumulative IPC: 1.26639 (Simulation time: 0 hr 57 min 54 sec) 
Heartbeat CPU 0 instructions: 1040000001 cycles: 713191244 heartbeat IPC: 1.28457 cumulative IPC: 1.2666 (Simulation time: 0 hr 58 min 27 sec) 
Heartbeat CPU 0 instructions: 1050000001 cycles: 720962358 heartbeat IPC: 1.28682 cumulative IPC: 1.26684 (Simulation time: 0 hr 59 min 0 sec) 
Heartbeat CPU 0 instructions: 1060000001 cycles: 728876229 heartbeat IPC: 1.2636 cumulative IPC: 1.2668 (Simulation time: 0 hr 59 min 34 sec) 
Heartbeat CPU 0 instructions: 1070000002 cycles: 736729089 heartbeat IPC: 1.27342 cumulative IPC: 1.26688 (Simulation time: 1 hr 0 min 6 sec) 
Heartbeat CPU 0 instructions: 1080000000 cycles: 744532911 heartbeat IPC: 1.28142 cumulative IPC: 1.26704 (Simulation time: 1 hr 0 min 40 sec) 
Heartbeat CPU 0 instructions: 1090000002 cycles: 752445999 heartbeat IPC: 1.26373 cumulative IPC: 1.267 (Simulation time: 1 hr 1 min 14 sec) 
Heartbeat CPU 0 instructions: 1100000001 cycles: 760158742 heartbeat IPC: 1.29656 cumulative IPC: 1.26732 (Simulation time: 1 hr 1 min 48 sec) 
Heartbeat CPU 0 instructions: 1110000003 cycles: 768150121 heartbeat IPC: 1.25135 cumulative IPC: 1.26714 (Simulation time: 1 hr 2 min 22 sec) 
Heartbeat CPU 0 instructions: 1120000000 cycles: 776058494 heartbeat IPC: 1.26448 cumulative IPC: 1.26712 (Simulation time: 1 hr 2 min 55 sec) 
Heartbeat CPU 0 instructions: 1130000001 cycles: 783901247 heartbeat IPC: 1.27506 cumulative IPC: 1.2672 (Simulation time: 1 hr 3 min 29 sec) 
Heartbeat CPU 0 instructions: 1140000000 cycles: 791697593 heartbeat IPC: 1.28265 cumulative IPC: 1.26736 (Simulation time: 1 hr 4 min 2 sec) 
Heartbeat CPU 0 instructions: 1150000000 cycles: 799583804 heartbeat IPC: 1.26804 cumulative IPC: 1.26737 (Simulation time: 1 hr 4 min 36 sec) 
Heartbeat CPU 0 instructions: 1160000000 cycles: 807500572 heartbeat IPC: 1.26314 cumulative IPC: 1.26733 (Simulation time: 1 hr 5 min 10 sec) 
Heartbeat CPU 0 instructions: 1170000002 cycles: 815384570 heartbeat IPC: 1.26839 cumulative IPC: 1.26734 (Simulation time: 1 hr 5 min 44 sec) 
Heartbeat CPU 0 instructions: 1180000001 cycles: 823333918 heartbeat IPC: 1.25796 cumulative IPC: 1.26724 (Simulation time: 1 hr 6 min 17 sec) 
Heartbeat CPU 0 instructions: 1190000000 cycles: 831164970 heartbeat IPC: 1.27697 cumulative IPC: 1.26734 (Simulation time: 1 hr 6 min 51 sec) 
Heartbeat CPU 0 instructions: 1200000000 cycles: 838913946 heartbeat IPC: 1.29049 cumulative IPC: 1.26757 (Simulation time: 1 hr 7 min 24 sec) 
Finished CPU 0 instructions: 1000000002 cycles: 788913751 cumulative IPC: 1.26757 (Simulation time: 1 hr 7 min 24 sec) 

ChampSim completed all CPUs

Region of Interest Statistics

CPU 0 cumulative IPC: 1.26757 instructions: 1000000002 cycles: 788913751
cpu0_DTLB TOTAL     ACCESS:  186591529  HIT:  186324900  MISS:     266629
cpu0_DTLB LOAD      ACCESS:  130179021  HIT:  129923364  MISS:     255657
cpu0_DTLB RFO       ACCESS:   56412508  HIT:   56401536  MISS:      10972
cpu0_DTLB PREFETCH  ACCESS:          0  HIT:          0  MISS:          0
cpu0_DTLB WRITEBACK ACCESS:          0  HIT:          0  MISS:          0
cpu0_DTLB TRANSLATION ACCESS:          0  HIT:          0  MISS:          0
cpu0_DTLB PREFETCH  REQUESTED:          0  ISSUED:          0  USEFUL:          0  USELESS:          0
cpu0_DTLB AVERAGE MISS LATENCY: 128.662 cycles
cpu0_ITLB TOTAL     ACCESS:   77435023  HIT:   77435023  MISS:          0
cpu0_ITLB LOAD      ACCESS:   77435023  HIT:   77435023  MISS:          0
cpu0_ITLB RFO       ACCESS:          0  HIT:          0  MISS:          0
cpu0_ITLB PREFETCH  ACCESS:          0  HIT:          0  MISS:          0
cpu0_ITLB WRITEBACK ACCESS:          0  HIT:          0  MISS:          0
cpu0_ITLB TRANSLATION ACCESS:          0  HIT:          0  MISS:          0
cpu0_ITLB PREFETCH  REQUESTED:          0  ISSUED:          0  USEFUL:          0  USELESS:          0
cpu0_ITLB AVERAGE MISS LATENCY: -nan cycles
cpu0_L1I TOTAL     ACCESS:  106808581  HIT:  106328618  MISS:     479963
cpu0_L1I LOAD      ACCESS:  106808581  HIT:  106328618  MISS:     479963
cpu0_L1I RFO       ACCESS:          0  HIT:          0  MISS:          0
cpu0_L1I PREFETCH  ACCESS:          0  HIT:          0  MISS:          0
cpu0_L1I WRITEBACK ACCESS:          0  HIT:          0  MISS:          0
cpu0_L1I TRANSLATION ACCESS:          0  HIT:          0  MISS:          0
cpu0_L1I PREFETCH  REQUESTED:          0  ISSUED:          0  USEFUL:          0  USELESS:          0
cpu0_L1I AVERAGE MISS LATENCY: 11.3674 cycles
cpu0_STLB TOTAL     ACCESS:     266629  HIT:     105897  MISS:     160732
cpu0_STLB LOAD      ACCESS:     255657  HIT:      94976  MISS:     160681
cpu0_STLB RFO       ACCESS:      10972  HIT:      10921  MISS:         51
cpu0_STLB PREFETCH  ACCESS:          0  HIT:          0  MISS:          0
cpu0_STLB WRITEBACK ACCESS:          0  HIT:          0  MISS:          0
cpu0_STLB TRANSLATION ACCESS:          0  HIT:          0  MISS:          0
cpu0_STLB PREFETCH  REQUESTED:          0  ISSUED:          0  USEFUL:          0  USELESS:          0
cpu0_STLB AVERAGE MISS LATENCY: 195.178 cycles
cpu0_L1D TOTAL     ACCESS:  267781851  HIT:  266932502  MISS:     849349
cpu0_L1D LOAD      ACCESS:  151375833  HIT:  150861688  MISS:     514145
cpu0_L1D RFO       ACCESS:  116246441  HIT:  116045553  MISS:     200888
cpu0_L1D PREFETCH  ACCESS:          0  HIT:          0  MISS:          0
cpu0_L1D WRITEBACK ACCESS:          0  HIT:          0  MISS:          0
cpu0_L1D TRANSLATION ACCESS:     159577  HIT:      25261  MISS:     134316
cpu0_L1D PREFETCH  REQUESTED:          0  ISSUED:          0  USEFUL:          0  USELESS:          0
cpu0_L1D AVERAGE MISS LATENCY: 68.6779 cycles
cpu0_L2C TOTAL     ACCESS:    2122465  HIT:    1787481  MISS:     334984
cpu0_L2C LOAD      ACCESS:     994071  HIT:     718143  MISS:     275928
cpu0_L2C RFO       ACCESS:     200884  HIT:     191989  MISS:       8895
cpu0_L2C PREFETCH  ACCESS:     366047  HIT:     317724  MISS:      48323
cpu0_L2C WRITEBACK ACCESS:     427147  HIT:     426568  MISS:        579
cpu0_L2C TRANSLATION ACCESS:     134316  HIT:     133057  MISS:       1259
cpu0_L2C PREFETCH  REQUESTED:     690523  ISSUED:     677673  USEFUL:       6279  USELESS:      42950
cpu0_L2C AVERAGE MISS LATENCY: 178.233 cycles
LLC TOTAL     ACCESS:     797515  HIT:     275982  MISS:     521533
LLC LOAD      ACCESS:     274781  HIT:      16361  MISS:     258420
LLC RFO       ACCESS:       8894  HIT:       5599  MISS:       3295
LLC PREFETCH  ACCESS:     313689  HIT:      58177  MISS:     255512
LLC WRITEBACK ACCESS:     198892  HIT:     195563  MISS:       3329
LLC TRANSLATION ACCESS:       1259  HIT:        282  MISS:        977
LLC PREFETCH  REQUESTED:          0  ISSUED:          0  USEFUL:          0  USELESS:          0
LLC AVERAGE MISS LATENCY: 192.448 cycles

DRAM Statistics
 CHANNEL 0
 RQ ROW_BUFFER_HIT:     104939  ROW_BUFFER_MISS:     413265
 DBUS AVG_CONGESTED_CYCLE:    3.88202
 WQ ROW_BUFFER_HIT:       6196  ROW_BUFFER_MISS:     183144  FULL:          0


CPU 0 Branch Prediction Accuracy: 90.3883% MPKI: 14.2102 Average ROB Occupancy at Mispredict: 33.6018
Branch type MPKI
BRANCH_DIRECT_JUMP: 2.4e-05
BRANCH_INDIRECT: 0.001995
BRANCH_CONDITIONAL: 14.2082
BRANCH_DIRECT_CALL: 3e-06
BRANCH_INDIRECT_CALL: 0
BRANCH_RETURN: 4e-06

***************** Done with 631.deepsjeng_s-928B.champsimtrace.xz using spp-dev-agg, on Mon Apr 18 15:54:00 CDT 2022 ******************
