Started running file 603.bwaves_s-3699B.champsimtrace.xz at time Mon Apr 18 14:43:05 CDT 2022 with prefetcher spp-dev-agg

*** ChampSim Multicore Out-of-Order Simulator ***

Warmup Instructions: 200000000
Simulation Instructions: 1000000000
Number of CPUs: 1
Off-chip DRAM Size: 4 GiB Channels: 1 Width: 64-bit Data Rate: 3200 MT/s

VirtualMemory physical capacity: 8588881920 num_ppages: 2096895
VirtualMemory page size: 4096 log2_page_size: 12

CPU 0 runs /home/faculty/p/pgratz/dpc3_traces/603.bwaves_s-3699B.champsimtrace.xz
CPU 0 Bimodal branch predictor
Basic BTB sets: 1024 ways: 8 indirect buffer size: 4096 RAS size: 64
SPP-DEV original prefetcher
Heartbeat CPU 0 instructions: 10000000 cycles: 2685166 heartbeat IPC: 3.72416 cumulative IPC: 3.72416 (Simulation time: 0 hr 0 min 30 sec) 
Heartbeat CPU 0 instructions: 20000002 cycles: 5318719 heartbeat IPC: 3.79715 cumulative IPC: 3.7603 (Simulation time: 0 hr 1 min 1 sec) 
Heartbeat CPU 0 instructions: 30000003 cycles: 7940276 heartbeat IPC: 3.81453 cumulative IPC: 3.77821 (Simulation time: 0 hr 1 min 32 sec) 
Heartbeat CPU 0 instructions: 40000003 cycles: 10625399 heartbeat IPC: 3.72422 cumulative IPC: 3.76456 (Simulation time: 0 hr 2 min 3 sec) 
Heartbeat CPU 0 instructions: 50000002 cycles: 13309251 heartbeat IPC: 3.72599 cumulative IPC: 3.75679 (Simulation time: 0 hr 2 min 33 sec) 
Heartbeat CPU 0 instructions: 60000004 cycles: 15989470 heartbeat IPC: 3.73104 cumulative IPC: 3.75247 (Simulation time: 0 hr 3 min 3 sec) 
Heartbeat CPU 0 instructions: 70000000 cycles: 18666381 heartbeat IPC: 3.73565 cumulative IPC: 3.75006 (Simulation time: 0 hr 3 min 34 sec) 
Heartbeat CPU 0 instructions: 80000004 cycles: 21342364 heartbeat IPC: 3.73695 cumulative IPC: 3.74841 (Simulation time: 0 hr 4 min 4 sec) 
Heartbeat CPU 0 instructions: 90000001 cycles: 24020476 heartbeat IPC: 3.73397 cumulative IPC: 3.7468 (Simulation time: 0 hr 4 min 34 sec) 
Heartbeat CPU 0 instructions: 100000001 cycles: 26682881 heartbeat IPC: 3.756 cumulative IPC: 3.74772 (Simulation time: 0 hr 5 min 5 sec) 
Heartbeat CPU 0 instructions: 110000002 cycles: 29347070 heartbeat IPC: 3.75349 cumulative IPC: 3.74824 (Simulation time: 0 hr 5 min 35 sec) 
Heartbeat CPU 0 instructions: 120000002 cycles: 32009011 heartbeat IPC: 3.75666 cumulative IPC: 3.74894 (Simulation time: 0 hr 6 min 5 sec) 
Heartbeat CPU 0 instructions: 130000000 cycles: 34661395 heartbeat IPC: 3.77019 cumulative IPC: 3.75057 (Simulation time: 0 hr 6 min 35 sec) 
Heartbeat CPU 0 instructions: 140000000 cycles: 37292408 heartbeat IPC: 3.80082 cumulative IPC: 3.75412 (Simulation time: 0 hr 7 min 5 sec) 
Heartbeat CPU 0 instructions: 150000004 cycles: 39945232 heartbeat IPC: 3.76957 cumulative IPC: 3.75514 (Simulation time: 0 hr 7 min 35 sec) 
Heartbeat CPU 0 instructions: 160000001 cycles: 42603584 heartbeat IPC: 3.76173 cumulative IPC: 3.75555 (Simulation time: 0 hr 8 min 5 sec) 
Heartbeat CPU 0 instructions: 170000002 cycles: 45238919 heartbeat IPC: 3.79458 cumulative IPC: 3.75783 (Simulation time: 0 hr 8 min 35 sec) 
Heartbeat CPU 0 instructions: 180000003 cycles: 47874295 heartbeat IPC: 3.79453 cumulative IPC: 3.75985 (Simulation time: 0 hr 9 min 5 sec) 
Heartbeat CPU 0 instructions: 190000003 cycles: 50516467 heartbeat IPC: 3.78477 cumulative IPC: 3.76115 (Simulation time: 0 hr 9 min 34 sec) 
Heartbeat CPU 0 instructions: 200000000 cycles: 53183753 heartbeat IPC: 3.74913 cumulative IPC: 3.76055 (Simulation time: 0 hr 10 min 5 sec) 

Warmup complete CPU 0 instructions: 200000005 cycles: 53183754 (Simulation time: 0 hr 10 min 5 sec) 

Heartbeat CPU 0 instructions: 210000000 cycles: 59316244 heartbeat IPC: 1.63066 cumulative IPC: 1.63066 (Simulation time: 0 hr 10 min 31 sec) 
Heartbeat CPU 0 instructions: 220000003 cycles: 65531021 heartbeat IPC: 1.60907 cumulative IPC: 1.61979 (Simulation time: 0 hr 10 min 58 sec) 
Heartbeat CPU 0 instructions: 230000001 cycles: 71646343 heartbeat IPC: 1.63524 cumulative IPC: 1.62491 (Simulation time: 0 hr 11 min 25 sec) 
Heartbeat CPU 0 instructions: 240000000 cycles: 77787452 heartbeat IPC: 1.62837 cumulative IPC: 1.62577 (Simulation time: 0 hr 11 min 52 sec) 
Heartbeat CPU 0 instructions: 250000001 cycles: 83847512 heartbeat IPC: 1.65015 cumulative IPC: 1.63059 (Simulation time: 0 hr 12 min 18 sec) 
Heartbeat CPU 0 instructions: 260000000 cycles: 89952776 heartbeat IPC: 1.63793 cumulative IPC: 1.63181 (Simulation time: 0 hr 12 min 45 sec) 
Heartbeat CPU 0 instructions: 270000000 cycles: 96101274 heartbeat IPC: 1.62641 cumulative IPC: 1.63104 (Simulation time: 0 hr 13 min 12 sec) 
Heartbeat CPU 0 instructions: 280000003 cycles: 102114401 heartbeat IPC: 1.66303 cumulative IPC: 1.63497 (Simulation time: 0 hr 13 min 38 sec) 
Heartbeat CPU 0 instructions: 290000002 cycles: 108228416 heartbeat IPC: 1.63559 cumulative IPC: 1.63504 (Simulation time: 0 hr 14 min 5 sec) 
Heartbeat CPU 0 instructions: 300000000 cycles: 114368011 heartbeat IPC: 1.62877 cumulative IPC: 1.63441 (Simulation time: 0 hr 14 min 32 sec) 
Heartbeat CPU 0 instructions: 310000001 cycles: 120389632 heartbeat IPC: 1.66068 cumulative IPC: 1.63676 (Simulation time: 0 hr 14 min 58 sec) 
Heartbeat CPU 0 instructions: 320000003 cycles: 126543328 heartbeat IPC: 1.62504 cumulative IPC: 1.63578 (Simulation time: 0 hr 15 min 25 sec) 
Heartbeat CPU 0 instructions: 330000003 cycles: 132722182 heartbeat IPC: 1.61842 cumulative IPC: 1.63443 (Simulation time: 0 hr 15 min 51 sec) 
Heartbeat CPU 0 instructions: 340000000 cycles: 138910436 heartbeat IPC: 1.61596 cumulative IPC: 1.6331 (Simulation time: 0 hr 16 min 18 sec) 
Heartbeat CPU 0 instructions: 350000002 cycles: 145045756 heartbeat IPC: 1.62991 cumulative IPC: 1.63288 (Simulation time: 0 hr 16 min 45 sec) 
Heartbeat CPU 0 instructions: 360000000 cycles: 151278625 heartbeat IPC: 1.6044 cumulative IPC: 1.63107 (Simulation time: 0 hr 17 min 12 sec) 
Heartbeat CPU 0 instructions: 370000001 cycles: 157313195 heartbeat IPC: 1.65712 cumulative IPC: 1.63258 (Simulation time: 0 hr 17 min 38 sec) 
Heartbeat CPU 0 instructions: 380000000 cycles: 163593549 heartbeat IPC: 1.59227 cumulative IPC: 1.63029 (Simulation time: 0 hr 18 min 5 sec) 
Heartbeat CPU 0 instructions: 390000004 cycles: 169720799 heartbeat IPC: 1.63205 cumulative IPC: 1.63038 (Simulation time: 0 hr 18 min 31 sec) 
Heartbeat CPU 0 instructions: 400000001 cycles: 176049144 heartbeat IPC: 1.58019 cumulative IPC: 1.6278 (Simulation time: 0 hr 18 min 58 sec) 
Heartbeat CPU 0 instructions: 410000001 cycles: 182275048 heartbeat IPC: 1.60619 cumulative IPC: 1.62676 (Simulation time: 0 hr 19 min 24 sec) 
Heartbeat CPU 0 instructions: 420000000 cycles: 188449596 heartbeat IPC: 1.61955 cumulative IPC: 1.62643 (Simulation time: 0 hr 19 min 51 sec) 
Heartbeat CPU 0 instructions: 430000000 cycles: 194621970 heartbeat IPC: 1.62012 cumulative IPC: 1.62615 (Simulation time: 0 hr 20 min 17 sec) 
Heartbeat CPU 0 instructions: 440000003 cycles: 200873232 heartbeat IPC: 1.59968 cumulative IPC: 1.62503 (Simulation time: 0 hr 20 min 44 sec) 
Heartbeat CPU 0 instructions: 450000004 cycles: 206923478 heartbeat IPC: 1.65283 cumulative IPC: 1.62612 (Simulation time: 0 hr 21 min 10 sec) 
Heartbeat CPU 0 instructions: 460000002 cycles: 212974632 heartbeat IPC: 1.65258 cumulative IPC: 1.62713 (Simulation time: 0 hr 21 min 37 sec) 
Heartbeat CPU 0 instructions: 470000003 cycles: 218907694 heartbeat IPC: 1.68547 cumulative IPC: 1.62922 (Simulation time: 0 hr 22 min 3 sec) 
Heartbeat CPU 0 instructions: 480000001 cycles: 224895327 heartbeat IPC: 1.67011 cumulative IPC: 1.63064 (Simulation time: 0 hr 22 min 29 sec) 
Heartbeat CPU 0 instructions: 490000003 cycles: 230832740 heartbeat IPC: 1.68424 cumulative IPC: 1.63243 (Simulation time: 0 hr 22 min 55 sec) 
Heartbeat CPU 0 instructions: 500000000 cycles: 236768943 heartbeat IPC: 1.68458 cumulative IPC: 1.63412 (Simulation time: 0 hr 23 min 21 sec) 
Heartbeat CPU 0 instructions: 510000003 cycles: 242700592 heartbeat IPC: 1.68587 cumulative IPC: 1.63574 (Simulation time: 0 hr 23 min 47 sec) 
Heartbeat CPU 0 instructions: 520000001 cycles: 248646672 heartbeat IPC: 1.68178 cumulative IPC: 1.63714 (Simulation time: 0 hr 24 min 13 sec) 
Heartbeat CPU 0 instructions: 530000000 cycles: 254857386 heartbeat IPC: 1.61012 cumulative IPC: 1.63631 (Simulation time: 0 hr 24 min 53 sec) 
Heartbeat CPU 0 instructions: 540000000 cycles: 260922325 heartbeat IPC: 1.64882 cumulative IPC: 1.63667 (Simulation time: 0 hr 25 min 28 sec) 
Heartbeat CPU 0 instructions: 550000000 cycles: 266855205 heartbeat IPC: 1.68552 cumulative IPC: 1.63803 (Simulation time: 0 hr 25 min 54 sec) 
Heartbeat CPU 0 instructions: 560000003 cycles: 272796961 heartbeat IPC: 1.683 cumulative IPC: 1.63925 (Simulation time: 0 hr 26 min 20 sec) 
Heartbeat CPU 0 instructions: 570000000 cycles: 278731383 heartbeat IPC: 1.68508 cumulative IPC: 1.64045 (Simulation time: 0 hr 26 min 46 sec) 
Heartbeat CPU 0 instructions: 580000002 cycles: 284653191 heartbeat IPC: 1.68867 cumulative IPC: 1.64169 (Simulation time: 0 hr 27 min 13 sec) 
Heartbeat CPU 0 instructions: 590000000 cycles: 290591282 heartbeat IPC: 1.68404 cumulative IPC: 1.64274 (Simulation time: 0 hr 27 min 39 sec) 
Heartbeat CPU 0 instructions: 600000001 cycles: 296529191 heartbeat IPC: 1.68409 cumulative IPC: 1.64375 (Simulation time: 0 hr 28 min 5 sec) 
Heartbeat CPU 0 instructions: 610000000 cycles: 302454900 heartbeat IPC: 1.68756 cumulative IPC: 1.6448 (Simulation time: 0 hr 28 min 32 sec) 
Heartbeat CPU 0 instructions: 620000004 cycles: 308402847 heartbeat IPC: 1.68125 cumulative IPC: 1.64564 (Simulation time: 0 hr 28 min 58 sec) 
Heartbeat CPU 0 instructions: 630000000 cycles: 314344784 heartbeat IPC: 1.68295 cumulative IPC: 1.64649 (Simulation time: 0 hr 29 min 24 sec) 
Heartbeat CPU 0 instructions: 640000000 cycles: 320290018 heartbeat IPC: 1.68202 cumulative IPC: 1.64728 (Simulation time: 0 hr 29 min 50 sec) 
Heartbeat CPU 0 instructions: 650000000 cycles: 326224349 heartbeat IPC: 1.68511 cumulative IPC: 1.64811 (Simulation time: 0 hr 30 min 17 sec) 
Heartbeat CPU 0 instructions: 660000003 cycles: 332274502 heartbeat IPC: 1.65285 cumulative IPC: 1.64821 (Simulation time: 0 hr 30 min 43 sec) 
Heartbeat CPU 0 instructions: 670000002 cycles: 338439878 heartbeat IPC: 1.62196 cumulative IPC: 1.64764 (Simulation time: 0 hr 31 min 10 sec) 
Heartbeat CPU 0 instructions: 680000000 cycles: 344670472 heartbeat IPC: 1.60498 cumulative IPC: 1.64673 (Simulation time: 0 hr 31 min 36 sec) 
Heartbeat CPU 0 instructions: 690000000 cycles: 350845028 heartbeat IPC: 1.61955 cumulative IPC: 1.64617 (Simulation time: 0 hr 32 min 3 sec) 
Heartbeat CPU 0 instructions: 700000001 cycles: 356942319 heartbeat IPC: 1.64007 cumulative IPC: 1.64604 (Simulation time: 0 hr 32 min 30 sec) 
Heartbeat CPU 0 instructions: 710000000 cycles: 363177827 heartbeat IPC: 1.60372 cumulative IPC: 1.64519 (Simulation time: 0 hr 32 min 56 sec) 
Heartbeat CPU 0 instructions: 720000000 cycles: 369576049 heartbeat IPC: 1.56293 cumulative IPC: 1.64353 (Simulation time: 0 hr 33 min 23 sec) 
Heartbeat CPU 0 instructions: 730000003 cycles: 375843634 heartbeat IPC: 1.59551 cumulative IPC: 1.6426 (Simulation time: 0 hr 33 min 49 sec) 
Heartbeat CPU 0 instructions: 740000001 cycles: 381986517 heartbeat IPC: 1.6279 cumulative IPC: 1.64232 (Simulation time: 0 hr 34 min 16 sec) 
Heartbeat CPU 0 instructions: 750000002 cycles: 388249327 heartbeat IPC: 1.59673 cumulative IPC: 1.64147 (Simulation time: 0 hr 34 min 42 sec) 
Heartbeat CPU 0 instructions: 760000000 cycles: 394406726 heartbeat IPC: 1.62406 cumulative IPC: 1.64116 (Simulation time: 0 hr 35 min 9 sec) 
Heartbeat CPU 0 instructions: 770000000 cycles: 400451878 heartbeat IPC: 1.65422 cumulative IPC: 1.64138 (Simulation time: 0 hr 35 min 35 sec) 
Heartbeat CPU 0 instructions: 780000003 cycles: 406591050 heartbeat IPC: 1.62888 cumulative IPC: 1.64117 (Simulation time: 0 hr 36 min 2 sec) 
Heartbeat CPU 0 instructions: 790000000 cycles: 412615142 heartbeat IPC: 1.66 cumulative IPC: 1.64148 (Simulation time: 0 hr 36 min 28 sec) 
Heartbeat CPU 0 instructions: 800000003 cycles: 418738067 heartbeat IPC: 1.63321 cumulative IPC: 1.64134 (Simulation time: 0 hr 36 min 55 sec) 
Heartbeat CPU 0 instructions: 810000001 cycles: 424854173 heartbeat IPC: 1.63503 cumulative IPC: 1.64124 (Simulation time: 0 hr 37 min 21 sec) 
Heartbeat CPU 0 instructions: 820000001 cycles: 430962275 heartbeat IPC: 1.63717 cumulative IPC: 1.64117 (Simulation time: 0 hr 37 min 48 sec) 
Heartbeat CPU 0 instructions: 830000000 cycles: 436987694 heartbeat IPC: 1.65964 cumulative IPC: 1.64146 (Simulation time: 0 hr 38 min 14 sec) 
Heartbeat CPU 0 instructions: 840000004 cycles: 443118142 heartbeat IPC: 1.6312 cumulative IPC: 1.6413 (Simulation time: 0 hr 38 min 41 sec) 
Heartbeat CPU 0 instructions: 850000002 cycles: 449135078 heartbeat IPC: 1.66198 cumulative IPC: 1.64162 (Simulation time: 0 hr 39 min 7 sec) 
Heartbeat CPU 0 instructions: 860000004 cycles: 455265552 heartbeat IPC: 1.6312 cumulative IPC: 1.64146 (Simulation time: 0 hr 39 min 34 sec) 
Heartbeat CPU 0 instructions: 870000000 cycles: 461292272 heartbeat IPC: 1.65928 cumulative IPC: 1.64172 (Simulation time: 0 hr 40 min 0 sec) 
Heartbeat CPU 0 instructions: 880000000 cycles: 467461528 heartbeat IPC: 1.62094 cumulative IPC: 1.64141 (Simulation time: 0 hr 40 min 27 sec) 
Heartbeat CPU 0 instructions: 890000002 cycles: 473487408 heartbeat IPC: 1.65951 cumulative IPC: 1.64167 (Simulation time: 0 hr 40 min 53 sec) 
Heartbeat CPU 0 instructions: 900000001 cycles: 479621054 heartbeat IPC: 1.63035 cumulative IPC: 1.64151 (Simulation time: 0 hr 41 min 20 sec) 
Heartbeat CPU 0 instructions: 910000000 cycles: 485798363 heartbeat IPC: 1.61883 cumulative IPC: 1.64118 (Simulation time: 0 hr 41 min 47 sec) 
Heartbeat CPU 0 instructions: 920000002 cycles: 491844805 heartbeat IPC: 1.65387 cumulative IPC: 1.64136 (Simulation time: 0 hr 42 min 13 sec) 
Heartbeat CPU 0 instructions: 930000002 cycles: 497880136 heartbeat IPC: 1.65691 cumulative IPC: 1.64157 (Simulation time: 0 hr 42 min 40 sec) 
Heartbeat CPU 0 instructions: 940000003 cycles: 504069093 heartbeat IPC: 1.61578 cumulative IPC: 1.64122 (Simulation time: 0 hr 43 min 6 sec) 
Heartbeat CPU 0 instructions: 950000002 cycles: 510370679 heartbeat IPC: 1.5869 cumulative IPC: 1.64047 (Simulation time: 0 hr 43 min 33 sec) 
Heartbeat CPU 0 instructions: 960000000 cycles: 516539508 heartbeat IPC: 1.62105 cumulative IPC: 1.64021 (Simulation time: 0 hr 44 min 0 sec) 
Heartbeat CPU 0 instructions: 970000002 cycles: 522733091 heartbeat IPC: 1.61457 cumulative IPC: 1.63987 (Simulation time: 0 hr 44 min 26 sec) 
Heartbeat CPU 0 instructions: 980000003 cycles: 529204666 heartbeat IPC: 1.54522 cumulative IPC: 1.63858 (Simulation time: 0 hr 44 min 53 sec) 
Heartbeat CPU 0 instructions: 990000002 cycles: 535334525 heartbeat IPC: 1.63136 cumulative IPC: 1.63849 (Simulation time: 0 hr 45 min 19 sec) 
Heartbeat CPU 0 instructions: 1000000000 cycles: 541584939 heartbeat IPC: 1.59989 cumulative IPC: 1.638 (Simulation time: 0 hr 45 min 46 sec) 
Heartbeat CPU 0 instructions: 1010000000 cycles: 547748099 heartbeat IPC: 1.62254 cumulative IPC: 1.63781 (Simulation time: 0 hr 46 min 12 sec) 
Heartbeat CPU 0 instructions: 1020000003 cycles: 553769593 heartbeat IPC: 1.66072 cumulative IPC: 1.63808 (Simulation time: 0 hr 46 min 39 sec) 
Heartbeat CPU 0 instructions: 1030000002 cycles: 559838519 heartbeat IPC: 1.64774 cumulative IPC: 1.6382 (Simulation time: 0 hr 47 min 5 sec) 
Heartbeat CPU 0 instructions: 1040000002 cycles: 565834851 heartbeat IPC: 1.66769 cumulative IPC: 1.63854 (Simulation time: 0 hr 47 min 31 sec) 
Heartbeat CPU 0 instructions: 1050000002 cycles: 571765307 heartbeat IPC: 1.68621 cumulative IPC: 1.63909 (Simulation time: 0 hr 47 min 57 sec) 
Heartbeat CPU 0 instructions: 1060000000 cycles: 577725965 heartbeat IPC: 1.67767 cumulative IPC: 1.63952 (Simulation time: 0 hr 48 min 23 sec) 
Heartbeat CPU 0 instructions: 1070000001 cycles: 583660157 heartbeat IPC: 1.68515 cumulative IPC: 1.64004 (Simulation time: 0 hr 48 min 49 sec) 
Heartbeat CPU 0 instructions: 1080000002 cycles: 589579043 heartbeat IPC: 1.68951 cumulative IPC: 1.64058 (Simulation time: 0 hr 49 min 15 sec) 
Heartbeat CPU 0 instructions: 1090000004 cycles: 595513060 heartbeat IPC: 1.6852 cumulative IPC: 1.64107 (Simulation time: 0 hr 49 min 41 sec) 
Heartbeat CPU 0 instructions: 1100000002 cycles: 601459927 heartbeat IPC: 1.68156 cumulative IPC: 1.64151 (Simulation time: 0 hr 50 min 7 sec) 
Heartbeat CPU 0 instructions: 1110000004 cycles: 607379275 heartbeat IPC: 1.68938 cumulative IPC: 1.64202 (Simulation time: 0 hr 50 min 34 sec) 
Heartbeat CPU 0 instructions: 1120000000 cycles: 613312414 heartbeat IPC: 1.68545 cumulative IPC: 1.64248 (Simulation time: 0 hr 51 min 0 sec) 
Heartbeat CPU 0 instructions: 1130000001 cycles: 619256170 heartbeat IPC: 1.68244 cumulative IPC: 1.6429 (Simulation time: 0 hr 51 min 26 sec) 
Heartbeat CPU 0 instructions: 1140000003 cycles: 625099874 heartbeat IPC: 1.71124 cumulative IPC: 1.6436 (Simulation time: 0 hr 51 min 52 sec) 
Heartbeat CPU 0 instructions: 1150000002 cycles: 630891946 heartbeat IPC: 1.7265 cumulative IPC: 1.64443 (Simulation time: 0 hr 52 min 18 sec) 
Heartbeat CPU 0 instructions: 1160000000 cycles: 637281912 heartbeat IPC: 1.56495 cumulative IPC: 1.64356 (Simulation time: 0 hr 53 min 6 sec) 
Heartbeat CPU 0 instructions: 1170000002 cycles: 643170181 heartbeat IPC: 1.69829 cumulative IPC: 1.64411 (Simulation time: 0 hr 53 min 32 sec) 
Heartbeat CPU 0 instructions: 1180000002 cycles: 649106308 heartbeat IPC: 1.6846 cumulative IPC: 1.64451 (Simulation time: 0 hr 53 min 57 sec) 
Heartbeat CPU 0 instructions: 1190000004 cycles: 655023847 heartbeat IPC: 1.68989 cumulative IPC: 1.64496 (Simulation time: 0 hr 54 min 23 sec) 
Heartbeat CPU 0 instructions: 1200000000 cycles: 660956810 heartbeat IPC: 1.6855 cumulative IPC: 1.64535 (Simulation time: 0 hr 54 min 48 sec) 
Finished CPU 0 instructions: 1000000000 cycles: 607773059 cumulative IPC: 1.64535 (Simulation time: 0 hr 54 min 48 sec) 

ChampSim completed all CPUs

Region of Interest Statistics

CPU 0 cumulative IPC: 1.64535 instructions: 1000000000 cycles: 607773059
cpu0_DTLB TOTAL     ACCESS:  147681028  HIT:  147677740  MISS:       3288
cpu0_DTLB LOAD      ACCESS:  125387909  HIT:  125387280  MISS:        629
cpu0_DTLB RFO       ACCESS:   22293119  HIT:   22290460  MISS:       2659
cpu0_DTLB PREFETCH  ACCESS:          0  HIT:          0  MISS:          0
cpu0_DTLB WRITEBACK ACCESS:          0  HIT:          0  MISS:          0
cpu0_DTLB TRANSLATION ACCESS:          0  HIT:          0  MISS:          0
cpu0_DTLB PREFETCH  REQUESTED:          0  ISSUED:          0  USEFUL:          0  USELESS:          0
cpu0_DTLB AVERAGE MISS LATENCY: 205.233 cycles
cpu0_ITLB TOTAL     ACCESS:  119391404  HIT:  119391404  MISS:          0
cpu0_ITLB LOAD      ACCESS:  119391404  HIT:  119391404  MISS:          0
cpu0_ITLB RFO       ACCESS:          0  HIT:          0  MISS:          0
cpu0_ITLB PREFETCH  ACCESS:          0  HIT:          0  MISS:          0
cpu0_ITLB WRITEBACK ACCESS:          0  HIT:          0  MISS:          0
cpu0_ITLB TRANSLATION ACCESS:          0  HIT:          0  MISS:          0
cpu0_ITLB PREFETCH  REQUESTED:          0  ISSUED:          0  USEFUL:          0  USELESS:          0
cpu0_ITLB AVERAGE MISS LATENCY: -nan cycles
cpu0_L1I TOTAL     ACCESS:    5681681  HIT:    5681681  MISS:          0
cpu0_L1I LOAD      ACCESS:    5681681  HIT:    5681681  MISS:          0
cpu0_L1I RFO       ACCESS:          0  HIT:          0  MISS:          0
cpu0_L1I PREFETCH  ACCESS:          0  HIT:          0  MISS:          0
cpu0_L1I WRITEBACK ACCESS:          0  HIT:          0  MISS:          0
cpu0_L1I TRANSLATION ACCESS:          0  HIT:          0  MISS:          0
cpu0_L1I PREFETCH  REQUESTED:          0  ISSUED:          0  USEFUL:          0  USELESS:          0
cpu0_L1I AVERAGE MISS LATENCY: -nan cycles
cpu0_STLB TOTAL     ACCESS:       3288  HIT:        363  MISS:       2925
cpu0_STLB LOAD      ACCESS:        629  HIT:        318  MISS:        311
cpu0_STLB RFO       ACCESS:       2659  HIT:         45  MISS:       2614
cpu0_STLB PREFETCH  ACCESS:          0  HIT:          0  MISS:          0
cpu0_STLB WRITEBACK ACCESS:          0  HIT:          0  MISS:          0
cpu0_STLB TRANSLATION ACCESS:          0  HIT:          0  MISS:          0
cpu0_STLB PREFETCH  REQUESTED:          0  ISSUED:          0  USEFUL:          0  USELESS:          0
cpu0_STLB AVERAGE MISS LATENCY: 218.338 cycles
cpu0_L1D TOTAL     ACCESS:  166045551  HIT:  165841731  MISS:     203820
cpu0_L1D LOAD      ACCESS:  128630115  HIT:  128594394  MISS:      35721
cpu0_L1D RFO       ACCESS:   37412511  HIT:   37244655  MISS:     167856
cpu0_L1D PREFETCH  ACCESS:          0  HIT:          0  MISS:          0
cpu0_L1D WRITEBACK ACCESS:          0  HIT:          0  MISS:          0
cpu0_L1D TRANSLATION ACCESS:       2925  HIT:       2682  MISS:        243
cpu0_L1D PREFETCH  REQUESTED:          0  ISSUED:          0  USEFUL:          0  USELESS:          0
cpu0_L1D AVERAGE MISS LATENCY: 852.286 cycles
cpu0_L2C TOTAL     ACCESS:     406800  HIT:     205574  MISS:     201226
cpu0_L2C LOAD      ACCESS:      35721  HIT:      35008  MISS:        713
cpu0_L2C RFO       ACCESS:     167856  HIT:        449  MISS:     167407
cpu0_L2C PREFETCH  ACCESS:      35765  HIT:       2879  MISS:      32886
cpu0_L2C WRITEBACK ACCESS:     167215  HIT:     166995  MISS:        220
cpu0_L2C TRANSLATION ACCESS:        243  HIT:        243  MISS:          0
cpu0_L2C PREFETCH  REQUESTED:     154789  ISSUED:     154013  USEFUL:      32897  USELESS:         15
cpu0_L2C AVERAGE MISS LATENCY: 864.863 cycles
LLC TOTAL     ACCESS:     471488  HIT:     270283  MISS:     201205
LLC LOAD      ACCESS:        683  HIT:         38  MISS:        645
LLC RFO       ACCESS:     167407  HIT:          0  MISS:     167407
LLC PREFETCH  ACCESS:     136538  HIT:     103561  MISS:      32977
LLC WRITEBACK ACCESS:     166860  HIT:     166684  MISS:        176
LLC TRANSLATION ACCESS:          0  HIT:          0  MISS:          0
LLC PREFETCH  REQUESTED:          0  ISSUED:          0  USEFUL:          0  USELESS:          0
LLC AVERAGE MISS LATENCY: 998.855 cycles

DRAM Statistics
 CHANNEL 0
 RQ ROW_BUFFER_HIT:       5940  ROW_BUFFER_MISS:     195089
 DBUS AVG_CONGESTED_CYCLE:    3.96866
 WQ ROW_BUFFER_HIT:      16239  ROW_BUFFER_MISS:     150085  FULL:          0


CPU 0 Branch Prediction Accuracy: 80.5169% MPKI: 28.2727 Average ROB Occupancy at Mispredict: 47.367
Branch type MPKI
BRANCH_DIRECT_JUMP: 0
BRANCH_INDIRECT: 0
BRANCH_CONDITIONAL: 28.2727
BRANCH_DIRECT_CALL: 0
BRANCH_INDIRECT_CALL: 0
BRANCH_RETURN: 0

***************** Done with 603.bwaves_s-3699B.champsimtrace.xz using spp-dev-agg, on Mon Apr 18 15:37:54 CDT 2022 ******************
