Started running file 621.wrf_s-575B.champsimtrace.xz at time Mon Apr 18 17:49:00 CDT 2022 with prefetcher spp-dev-agg

*** ChampSim Multicore Out-of-Order Simulator ***

Warmup Instructions: 200000000
Simulation Instructions: 1000000000
Number of CPUs: 1
Off-chip DRAM Size: 4 GiB Channels: 1 Width: 64-bit Data Rate: 3200 MT/s

VirtualMemory physical capacity: 8588881920 num_ppages: 2096895
VirtualMemory page size: 4096 log2_page_size: 12

CPU 0 runs /home/faculty/p/pgratz/dpc3_traces/621.wrf_s-575B.champsimtrace.xz
CPU 0 Bimodal branch predictor
Basic BTB sets: 1024 ways: 8 indirect buffer size: 4096 RAS size: 64
SPP-DEV original prefetcher
Heartbeat CPU 0 instructions: 10000003 cycles: 2501548 heartbeat IPC: 3.99753 cumulative IPC: 3.99753 (Simulation time: 0 hr 0 min 28 sec) 
Heartbeat CPU 0 instructions: 20000002 cycles: 5002985 heartbeat IPC: 3.9977 cumulative IPC: 3.99761 (Simulation time: 0 hr 0 min 56 sec) 
Heartbeat CPU 0 instructions: 30000002 cycles: 7504418 heartbeat IPC: 3.99771 cumulative IPC: 3.99765 (Simulation time: 0 hr 1 min 23 sec) 
Heartbeat CPU 0 instructions: 40000003 cycles: 10005848 heartbeat IPC: 3.99771 cumulative IPC: 3.99766 (Simulation time: 0 hr 1 min 51 sec) 
Heartbeat CPU 0 instructions: 50000002 cycles: 12507280 heartbeat IPC: 3.99771 cumulative IPC: 3.99767 (Simulation time: 0 hr 2 min 19 sec) 
Heartbeat CPU 0 instructions: 60000002 cycles: 15008704 heartbeat IPC: 3.99772 cumulative IPC: 3.99768 (Simulation time: 0 hr 2 min 47 sec) 
Heartbeat CPU 0 instructions: 70000003 cycles: 17511542 heartbeat IPC: 3.99546 cumulative IPC: 3.99736 (Simulation time: 0 hr 3 min 14 sec) 
Heartbeat CPU 0 instructions: 80000000 cycles: 20012955 heartbeat IPC: 3.99774 cumulative IPC: 3.99741 (Simulation time: 0 hr 3 min 42 sec) 
Heartbeat CPU 0 instructions: 90000002 cycles: 22514367 heartbeat IPC: 3.99774 cumulative IPC: 3.99745 (Simulation time: 0 hr 4 min 10 sec) 
Heartbeat CPU 0 instructions: 100000003 cycles: 25015771 heartbeat IPC: 3.99776 cumulative IPC: 3.99748 (Simulation time: 0 hr 4 min 37 sec) 
Heartbeat CPU 0 instructions: 110000002 cycles: 27517172 heartbeat IPC: 3.99776 cumulative IPC: 3.9975 (Simulation time: 0 hr 5 min 5 sec) 
Heartbeat CPU 0 instructions: 120000002 cycles: 30018575 heartbeat IPC: 3.99776 cumulative IPC: 3.99752 (Simulation time: 0 hr 5 min 32 sec) 
Heartbeat CPU 0 instructions: 130000000 cycles: 32519974 heartbeat IPC: 3.99776 cumulative IPC: 3.99754 (Simulation time: 0 hr 5 min 59 sec) 
Heartbeat CPU 0 instructions: 140000003 cycles: 35022776 heartbeat IPC: 3.99552 cumulative IPC: 3.9974 (Simulation time: 0 hr 6 min 26 sec) 
Heartbeat CPU 0 instructions: 150000003 cycles: 37524178 heartbeat IPC: 3.99776 cumulative IPC: 3.99742 (Simulation time: 0 hr 6 min 53 sec) 
Heartbeat CPU 0 instructions: 160000000 cycles: 40025582 heartbeat IPC: 3.99775 cumulative IPC: 3.99744 (Simulation time: 0 hr 7 min 20 sec) 
Heartbeat CPU 0 instructions: 170000003 cycles: 42526988 heartbeat IPC: 3.99775 cumulative IPC: 3.99746 (Simulation time: 0 hr 7 min 47 sec) 
Heartbeat CPU 0 instructions: 180000001 cycles: 45028396 heartbeat IPC: 3.99775 cumulative IPC: 3.99748 (Simulation time: 0 hr 8 min 14 sec) 
Heartbeat CPU 0 instructions: 190000000 cycles: 47529806 heartbeat IPC: 3.99774 cumulative IPC: 3.99749 (Simulation time: 0 hr 8 min 42 sec) 
Heartbeat CPU 0 instructions: 200000000 cycles: 50032637 heartbeat IPC: 3.99548 cumulative IPC: 3.99739 (Simulation time: 0 hr 9 min 9 sec) 

Warmup complete CPU 0 instructions: 200000004 cycles: 50032638 (Simulation time: 0 hr 9 min 9 sec) 

Heartbeat CPU 0 instructions: 210000000 cycles: 59580150 heartbeat IPC: 1.04739 cumulative IPC: 1.04739 (Simulation time: 0 hr 9 min 45 sec) 
Heartbeat CPU 0 instructions: 220000001 cycles: 69094829 heartbeat IPC: 1.05101 cumulative IPC: 1.0492 (Simulation time: 0 hr 10 min 22 sec) 
Heartbeat CPU 0 instructions: 230000002 cycles: 78674646 heartbeat IPC: 1.04386 cumulative IPC: 1.04741 (Simulation time: 0 hr 10 min 59 sec) 
Heartbeat CPU 0 instructions: 240000003 cycles: 88323437 heartbeat IPC: 1.0364 cumulative IPC: 1.04464 (Simulation time: 0 hr 11 min 36 sec) 
Heartbeat CPU 0 instructions: 250000003 cycles: 97993270 heartbeat IPC: 1.03414 cumulative IPC: 1.04252 (Simulation time: 0 hr 12 min 13 sec) 
Heartbeat CPU 0 instructions: 260000000 cycles: 107651497 heartbeat IPC: 1.03539 cumulative IPC: 1.04133 (Simulation time: 0 hr 12 min 50 sec) 
Heartbeat CPU 0 instructions: 270000002 cycles: 117303763 heartbeat IPC: 1.03603 cumulative IPC: 1.04057 (Simulation time: 0 hr 13 min 27 sec) 
Heartbeat CPU 0 instructions: 280000002 cycles: 126945992 heartbeat IPC: 1.0371 cumulative IPC: 1.04013 (Simulation time: 0 hr 14 min 4 sec) 
Heartbeat CPU 0 instructions: 290000000 cycles: 136640411 heartbeat IPC: 1.03152 cumulative IPC: 1.03917 (Simulation time: 0 hr 14 min 41 sec) 
Heartbeat CPU 0 instructions: 300000001 cycles: 146315078 heartbeat IPC: 1.03363 cumulative IPC: 1.03861 (Simulation time: 0 hr 15 min 18 sec) 
Heartbeat CPU 0 instructions: 310000003 cycles: 155915830 heartbeat IPC: 1.04159 cumulative IPC: 1.03888 (Simulation time: 0 hr 15 min 55 sec) 
Heartbeat CPU 0 instructions: 320000002 cycles: 165670154 heartbeat IPC: 1.02519 cumulative IPC: 1.03773 (Simulation time: 0 hr 16 min 32 sec) 
Heartbeat CPU 0 instructions: 330000002 cycles: 175355820 heartbeat IPC: 1.03245 cumulative IPC: 1.03732 (Simulation time: 0 hr 17 min 9 sec) 
Heartbeat CPU 0 instructions: 340000001 cycles: 183116133 heartbeat IPC: 1.28861 cumulative IPC: 1.05197 (Simulation time: 0 hr 17 min 54 sec) 
Heartbeat CPU 0 instructions: 350000001 cycles: 190636711 heartbeat IPC: 1.32968 cumulative IPC: 1.06683 (Simulation time: 0 hr 18 min 34 sec) 
Heartbeat CPU 0 instructions: 360000001 cycles: 198394638 heartbeat IPC: 1.289 cumulative IPC: 1.07844 (Simulation time: 0 hr 19 min 14 sec) 
Heartbeat CPU 0 instructions: 370000002 cycles: 206164963 heartbeat IPC: 1.28695 cumulative IPC: 1.08882 (Simulation time: 0 hr 19 min 54 sec) 
Heartbeat CPU 0 instructions: 380000000 cycles: 213984131 heartbeat IPC: 1.27891 cumulative IPC: 1.09789 (Simulation time: 0 hr 20 min 35 sec) 
Heartbeat CPU 0 instructions: 390000000 cycles: 232475125 heartbeat IPC: 0.540804 cumulative IPC: 1.04142 (Simulation time: 0 hr 22 min 35 sec) 
Heartbeat CPU 0 instructions: 400000000 cycles: 238234060 heartbeat IPC: 1.73643 cumulative IPC: 1.06269 (Simulation time: 0 hr 23 min 20 sec) 
Heartbeat CPU 0 instructions: 410000002 cycles: 243830970 heartbeat IPC: 1.7867 cumulative IPC: 1.0836 (Simulation time: 0 hr 24 min 5 sec) 
Heartbeat CPU 0 instructions: 420000001 cycles: 249226842 heartbeat IPC: 1.85327 cumulative IPC: 1.10445 (Simulation time: 0 hr 24 min 50 sec) 
Heartbeat CPU 0 instructions: 430000000 cycles: 254715649 heartbeat IPC: 1.82189 cumulative IPC: 1.12369 (Simulation time: 0 hr 25 min 34 sec) 
Heartbeat CPU 0 instructions: 440000000 cycles: 260235459 heartbeat IPC: 1.81166 cumulative IPC: 1.14175 (Simulation time: 0 hr 26 min 18 sec) 
Heartbeat CPU 0 instructions: 450000001 cycles: 265721009 heartbeat IPC: 1.82297 cumulative IPC: 1.15908 (Simulation time: 0 hr 27 min 2 sec) 
Heartbeat CPU 0 instructions: 460000001 cycles: 271119632 heartbeat IPC: 1.85232 cumulative IPC: 1.17601 (Simulation time: 0 hr 27 min 46 sec) 
Heartbeat CPU 0 instructions: 470000003 cycles: 276297217 heartbeat IPC: 1.9314 cumulative IPC: 1.19329 (Simulation time: 0 hr 28 min 31 sec) 
Heartbeat CPU 0 instructions: 480000001 cycles: 281712276 heartbeat IPC: 1.8467 cumulative IPC: 1.20857 (Simulation time: 0 hr 29 min 16 sec) 
Heartbeat CPU 0 instructions: 490000002 cycles: 288254120 heartbeat IPC: 1.52862 cumulative IPC: 1.21735 (Simulation time: 0 hr 30 min 6 sec) 
Heartbeat CPU 0 instructions: 500000001 cycles: 294887372 heartbeat IPC: 1.50756 cumulative IPC: 1.22522 (Simulation time: 0 hr 30 min 58 sec) 
Heartbeat CPU 0 instructions: 510000002 cycles: 301533495 heartbeat IPC: 1.50464 cumulative IPC: 1.2326 (Simulation time: 0 hr 31 min 49 sec) 
Heartbeat CPU 0 instructions: 520000001 cycles: 308060480 heartbeat IPC: 1.5321 cumulative IPC: 1.24018 (Simulation time: 0 hr 32 min 39 sec) 
Heartbeat CPU 0 instructions: 530000000 cycles: 314863516 heartbeat IPC: 1.46993 cumulative IPC: 1.24608 (Simulation time: 0 hr 33 min 29 sec) 
Heartbeat CPU 0 instructions: 540000002 cycles: 321679493 heartbeat IPC: 1.46714 cumulative IPC: 1.25163 (Simulation time: 0 hr 34 min 20 sec) 
Heartbeat CPU 0 instructions: 550000003 cycles: 328491165 heartbeat IPC: 1.46807 cumulative IPC: 1.25692 (Simulation time: 0 hr 35 min 10 sec) 
Heartbeat CPU 0 instructions: 560000000 cycles: 335068203 heartbeat IPC: 1.52044 cumulative IPC: 1.263 (Simulation time: 0 hr 36 min 1 sec) 
Heartbeat CPU 0 instructions: 570000004 cycles: 341747097 heartbeat IPC: 1.49725 cumulative IPC: 1.26836 (Simulation time: 0 hr 36 min 51 sec) 
Heartbeat CPU 0 instructions: 580000002 cycles: 348484660 heartbeat IPC: 1.48422 cumulative IPC: 1.27324 (Simulation time: 0 hr 37 min 42 sec) 
Heartbeat CPU 0 instructions: 590000000 cycles: 355263254 heartbeat IPC: 1.47523 cumulative IPC: 1.27772 (Simulation time: 0 hr 38 min 32 sec) 
Heartbeat CPU 0 instructions: 600000001 cycles: 362026999 heartbeat IPC: 1.47847 cumulative IPC: 1.28207 (Simulation time: 0 hr 39 min 22 sec) 
Heartbeat CPU 0 instructions: 610000003 cycles: 368625210 heartbeat IPC: 1.51556 cumulative IPC: 1.28691 (Simulation time: 0 hr 40 min 12 sec) 
Heartbeat CPU 0 instructions: 620000003 cycles: 382651847 heartbeat IPC: 0.712929 cumulative IPC: 1.26271 (Simulation time: 0 hr 41 min 45 sec) 
Heartbeat CPU 0 instructions: 630000004 cycles: 396294891 heartbeat IPC: 0.732974 cumulative IPC: 1.24183 (Simulation time: 0 hr 43 min 6 sec) 
Heartbeat CPU 0 instructions: 640000001 cycles: 408475809 heartbeat IPC: 0.820956 cumulative IPC: 1.22753 (Simulation time: 0 hr 44 min 22 sec) 
Heartbeat CPU 0 instructions: 650000002 cycles: 424386211 heartbeat IPC: 0.62852 cumulative IPC: 1.20207 (Simulation time: 0 hr 45 min 55 sec) 
Heartbeat CPU 0 instructions: 660000001 cycles: 437061931 heartbeat IPC: 0.78891 cumulative IPC: 1.18854 (Simulation time: 0 hr 47 min 6 sec) 
Heartbeat CPU 0 instructions: 670000002 cycles: 445442126 heartbeat IPC: 1.19329 cumulative IPC: 1.18864 (Simulation time: 0 hr 48 min 9 sec) 
Heartbeat CPU 0 instructions: 680000001 cycles: 468968662 heartbeat IPC: 0.425052 cumulative IPC: 1.14576 (Simulation time: 0 hr 50 min 27 sec) 
Heartbeat CPU 0 instructions: 690000000 cycles: 473181917 heartbeat IPC: 2.37346 cumulative IPC: 1.15798 (Simulation time: 0 hr 51 min 16 sec) 
Heartbeat CPU 0 instructions: 700000004 cycles: 477733411 heartbeat IPC: 2.19708 cumulative IPC: 1.16904 (Simulation time: 0 hr 52 min 9 sec) 
Heartbeat CPU 0 instructions: 710000000 cycles: 482041057 heartbeat IPC: 2.32145 cumulative IPC: 1.18053 (Simulation time: 0 hr 52 min 58 sec) 
Heartbeat CPU 0 instructions: 720000003 cycles: 486153546 heartbeat IPC: 2.43162 cumulative IPC: 1.19233 (Simulation time: 0 hr 53 min 42 sec) 
Heartbeat CPU 0 instructions: 730000004 cycles: 490631989 heartbeat IPC: 2.23292 cumulative IPC: 1.20291 (Simulation time: 0 hr 54 min 28 sec) 
Heartbeat CPU 0 instructions: 740000004 cycles: 496078278 heartbeat IPC: 1.83611 cumulative IPC: 1.21064 (Simulation time: 0 hr 55 min 16 sec) 
Heartbeat CPU 0 instructions: 750000004 cycles: 506579973 heartbeat IPC: 0.952227 cumulative IPC: 1.20469 (Simulation time: 0 hr 56 min 32 sec) 
Heartbeat CPU 0 instructions: 760000000 cycles: 516067344 heartbeat IPC: 1.05403 cumulative IPC: 1.20163 (Simulation time: 0 hr 57 min 42 sec) 
Heartbeat CPU 0 instructions: 770000003 cycles: 524988701 heartbeat IPC: 1.12091 cumulative IPC: 1.20011 (Simulation time: 0 hr 58 min 50 sec) 
Heartbeat CPU 0 instructions: 780000000 cycles: 530536310 heartbeat IPC: 1.80258 cumulative IPC: 1.20707 (Simulation time: 0 hr 59 min 42 sec) 
Heartbeat CPU 0 instructions: 790000003 cycles: 535592625 heartbeat IPC: 1.97773 cumulative IPC: 1.21509 (Simulation time: 1 hr 0 min 30 sec) 
Heartbeat CPU 0 instructions: 800000003 cycles: 544927159 heartbeat IPC: 1.07129 cumulative IPC: 1.21238 (Simulation time: 1 hr 1 min 40 sec) 
Heartbeat CPU 0 instructions: 810000000 cycles: 555013831 heartbeat IPC: 0.991407 cumulative IPC: 1.20797 (Simulation time: 1 hr 3 min 3 sec) 
Heartbeat CPU 0 instructions: 820000002 cycles: 584473231 heartbeat IPC: 0.33945 cumulative IPC: 1.16009 (Simulation time: 1 hr 5 min 25 sec) 
Heartbeat CPU 0 instructions: 830000003 cycles: 596982796 heartbeat IPC: 0.799388 cumulative IPC: 1.15184 (Simulation time: 1 hr 6 min 47 sec) 
Heartbeat CPU 0 instructions: 840000000 cycles: 608085615 heartbeat IPC: 0.900672 cumulative IPC: 1.14684 (Simulation time: 1 hr 8 min 5 sec) 
Heartbeat CPU 0 instructions: 850000002 cycles: 631505676 heartbeat IPC: 0.426984 cumulative IPC: 1.11785 (Simulation time: 1 hr 10 min 18 sec) 
Heartbeat CPU 0 instructions: 860000002 cycles: 645344888 heartbeat IPC: 0.722584 cumulative IPC: 1.10866 (Simulation time: 1 hr 11 min 45 sec) 
Heartbeat CPU 0 instructions: 870000004 cycles: 649347462 heartbeat IPC: 2.49839 cumulative IPC: 1.11794 (Simulation time: 1 hr 12 min 25 sec) 
Heartbeat CPU 0 instructions: 880000002 cycles: 657351958 heartbeat IPC: 1.2493 cumulative IPC: 1.11967 (Simulation time: 1 hr 13 min 24 sec) 
Heartbeat CPU 0 instructions: 890000002 cycles: 661496998 heartbeat IPC: 2.41252 cumulative IPC: 1.12844 (Simulation time: 1 hr 14 min 5 sec) 
Heartbeat CPU 0 instructions: 900000004 cycles: 668850293 heartbeat IPC: 1.35993 cumulative IPC: 1.13119 (Simulation time: 1 hr 15 min 3 sec) 
Heartbeat CPU 0 instructions: 910000003 cycles: 673051129 heartbeat IPC: 2.38048 cumulative IPC: 1.13961 (Simulation time: 1 hr 15 min 45 sec) 
Heartbeat CPU 0 instructions: 920000002 cycles: 680204734 heartbeat IPC: 1.3979 cumulative IPC: 1.14254 (Simulation time: 1 hr 16 min 40 sec) 
Heartbeat CPU 0 instructions: 930000002 cycles: 684519752 heartbeat IPC: 2.31749 cumulative IPC: 1.15054 (Simulation time: 1 hr 17 min 22 sec) 
Heartbeat CPU 0 instructions: 940000003 cycles: 691586795 heartbeat IPC: 1.41502 cumulative IPC: 1.15345 (Simulation time: 1 hr 18 min 16 sec) 
Heartbeat CPU 0 instructions: 950000004 cycles: 696162959 heartbeat IPC: 2.18524 cumulative IPC: 1.16076 (Simulation time: 1 hr 18 min 59 sec) 
Heartbeat CPU 0 instructions: 960000001 cycles: 703670502 heartbeat IPC: 1.33199 cumulative IPC: 1.16272 (Simulation time: 1 hr 19 min 54 sec) 
Heartbeat CPU 0 instructions: 970000002 cycles: 712120969 heartbeat IPC: 1.18337 cumulative IPC: 1.16299 (Simulation time: 1 hr 20 min 41 sec) 
Heartbeat CPU 0 instructions: 980000001 cycles: 720607455 heartbeat IPC: 1.17834 cumulative IPC: 1.16318 (Simulation time: 1 hr 21 min 28 sec) 
Heartbeat CPU 0 instructions: 990000001 cycles: 729116651 heartbeat IPC: 1.1752 cumulative IPC: 1.16333 (Simulation time: 1 hr 22 min 15 sec) 
Heartbeat CPU 0 instructions: 1000000003 cycles: 741557353 heartbeat IPC: 0.803813 cumulative IPC: 1.15686 (Simulation time: 1 hr 23 min 26 sec) 
Heartbeat CPU 0 instructions: 1010000000 cycles: 759919592 heartbeat IPC: 0.544596 cumulative IPC: 1.14103 (Simulation time: 1 hr 25 min 5 sec) 
Heartbeat CPU 0 instructions: 1020000003 cycles: 764742509 heartbeat IPC: 2.07343 cumulative IPC: 1.14732 (Simulation time: 1 hr 25 min 55 sec) 
Heartbeat CPU 0 instructions: 1030000004 cycles: 769210906 heartbeat IPC: 2.23794 cumulative IPC: 1.15409 (Simulation time: 1 hr 26 min 46 sec) 
Heartbeat CPU 0 instructions: 1040000004 cycles: 773350066 heartbeat IPC: 2.41595 cumulative IPC: 1.16132 (Simulation time: 1 hr 27 min 33 sec) 
Heartbeat CPU 0 instructions: 1050000001 cycles: 777783085 heartbeat IPC: 2.2558 cumulative IPC: 1.16798 (Simulation time: 1 hr 28 min 17 sec) 
Heartbeat CPU 0 instructions: 1060000000 cycles: 782032343 heartbeat IPC: 2.35335 cumulative IPC: 1.17486 (Simulation time: 1 hr 29 min 2 sec) 
Heartbeat CPU 0 instructions: 1070000003 cycles: 786181231 heartbeat IPC: 2.41029 cumulative IPC: 1.18183 (Simulation time: 1 hr 29 min 42 sec) 
Heartbeat CPU 0 instructions: 1080000004 cycles: 794775960 heartbeat IPC: 1.1635 cumulative IPC: 1.18162 (Simulation time: 1 hr 30 min 48 sec) 
Heartbeat CPU 0 instructions: 1090000003 cycles: 805612088 heartbeat IPC: 0.922839 cumulative IPC: 1.1779 (Simulation time: 1 hr 32 min 2 sec) 
Heartbeat CPU 0 instructions: 1100000000 cycles: 812971849 heartbeat IPC: 1.35874 cumulative IPC: 1.17965 (Simulation time: 1 hr 33 min 0 sec) 
Heartbeat CPU 0 instructions: 1110000003 cycles: 822365712 heartbeat IPC: 1.06453 cumulative IPC: 1.17825 (Simulation time: 1 hr 34 min 5 sec) 
Heartbeat CPU 0 instructions: 1120000000 cycles: 836323212 heartbeat IPC: 0.71646 cumulative IPC: 1.17005 (Simulation time: 1 hr 35 min 31 sec) 
Heartbeat CPU 0 instructions: 1130000001 cycles: 857423137 heartbeat IPC: 0.473935 cumulative IPC: 1.15186 (Simulation time: 1 hr 37 min 23 sec) 
Heartbeat CPU 0 instructions: 1140000001 cycles: 866893943 heartbeat IPC: 1.05588 cumulative IPC: 1.15075 (Simulation time: 1 hr 38 min 31 sec) 
Heartbeat CPU 0 instructions: 1150000002 cycles: 878642428 heartbeat IPC: 0.851174 cumulative IPC: 1.1465 (Simulation time: 1 hr 39 min 51 sec) 
Heartbeat CPU 0 instructions: 1160000001 cycles: 898996439 heartbeat IPC: 0.491304 cumulative IPC: 1.13079 (Simulation time: 1 hr 41 min 43 sec) 
Heartbeat CPU 0 instructions: 1170000000 cycles: 909916037 heartbeat IPC: 0.915785 cumulative IPC: 1.12806 (Simulation time: 1 hr 42 min 58 sec) 
Heartbeat CPU 0 instructions: 1180000001 cycles: 929784072 heartbeat IPC: 0.503321 cumulative IPC: 1.11395 (Simulation time: 1 hr 44 min 54 sec) 
Heartbeat CPU 0 instructions: 1190000001 cycles: 946599603 heartbeat IPC: 0.594688 cumulative IPC: 1.10421 (Simulation time: 1 hr 46 min 36 sec) 
Heartbeat CPU 0 instructions: 1200000000 cycles: 950746606 heartbeat IPC: 2.41138 cumulative IPC: 1.11023 (Simulation time: 1 hr 47 min 17 sec) 
Finished CPU 0 instructions: 1000000001 cycles: 900713969 cumulative IPC: 1.11023 (Simulation time: 1 hr 47 min 17 sec) 

ChampSim completed all CPUs

Region of Interest Statistics

CPU 0 cumulative IPC: 1.11023 instructions: 1000000001 cycles: 900713969
cpu0_DTLB TOTAL     ACCESS:  225696671  HIT:  224590510  MISS:    1106161
cpu0_DTLB LOAD      ACCESS:  187932701  HIT:  187143621  MISS:     789080
cpu0_DTLB RFO       ACCESS:   37763970  HIT:   37446889  MISS:     317081
cpu0_DTLB PREFETCH  ACCESS:          0  HIT:          0  MISS:          0
cpu0_DTLB WRITEBACK ACCESS:          0  HIT:          0  MISS:          0
cpu0_DTLB TRANSLATION ACCESS:          0  HIT:          0  MISS:          0
cpu0_DTLB PREFETCH  REQUESTED:          0  ISSUED:          0  USEFUL:          0  USELESS:          0
cpu0_DTLB AVERAGE MISS LATENCY: 19.1027 cycles
cpu0_ITLB TOTAL     ACCESS:   50875959  HIT:   50875237  MISS:        722
cpu0_ITLB LOAD      ACCESS:   50875959  HIT:   50875237  MISS:        722
cpu0_ITLB RFO       ACCESS:          0  HIT:          0  MISS:          0
cpu0_ITLB PREFETCH  ACCESS:          0  HIT:          0  MISS:          0
cpu0_ITLB WRITEBACK ACCESS:          0  HIT:          0  MISS:          0
cpu0_ITLB TRANSLATION ACCESS:          0  HIT:          0  MISS:          0
cpu0_ITLB PREFETCH  REQUESTED:          0  ISSUED:          0  USEFUL:          0  USELESS:          0
cpu0_ITLB AVERAGE MISS LATENCY: 251.918 cycles
cpu0_L1I TOTAL     ACCESS:   30879377  HIT:   30318626  MISS:     560751
cpu0_L1I LOAD      ACCESS:   30879377  HIT:   30318626  MISS:     560751
cpu0_L1I RFO       ACCESS:          0  HIT:          0  MISS:          0
cpu0_L1I PREFETCH  ACCESS:          0  HIT:          0  MISS:          0
cpu0_L1I WRITEBACK ACCESS:          0  HIT:          0  MISS:          0
cpu0_L1I TRANSLATION ACCESS:          0  HIT:          0  MISS:          0
cpu0_L1I PREFETCH  REQUESTED:          0  ISSUED:          0  USEFUL:          0  USELESS:          0
cpu0_L1I AVERAGE MISS LATENCY: 19.9421 cycles
cpu0_STLB TOTAL     ACCESS:    1106883  HIT:    1077254  MISS:      29629
cpu0_STLB LOAD      ACCESS:     789802  HIT:     774014  MISS:      15788
cpu0_STLB RFO       ACCESS:     317081  HIT:     303240  MISS:      13841
cpu0_STLB PREFETCH  ACCESS:          0  HIT:          0  MISS:          0
cpu0_STLB WRITEBACK ACCESS:          0  HIT:          0  MISS:          0
cpu0_STLB TRANSLATION ACCESS:          0  HIT:          0  MISS:          0
cpu0_STLB PREFETCH  REQUESTED:          0  ISSUED:          0  USEFUL:          0  USELESS:          0
cpu0_STLB AVERAGE MISS LATENCY: 301.839 cycles
cpu0_L1D TOTAL     ACCESS:  236668621  HIT:  221567772  MISS:   15100849
cpu0_L1D LOAD      ACCESS:  176303341  HIT:  164969834  MISS:   11333507
cpu0_L1D RFO       ACCESS:   60338002  HIT:   56573886  MISS:    3764116
cpu0_L1D PREFETCH  ACCESS:          0  HIT:          0  MISS:          0
cpu0_L1D WRITEBACK ACCESS:          0  HIT:          0  MISS:          0
cpu0_L1D TRANSLATION ACCESS:      27278  HIT:      24052  MISS:       3226
cpu0_L1D PREFETCH  REQUESTED:          0  ISSUED:          0  USEFUL:          0  USELESS:          0
cpu0_L1D AVERAGE MISS LATENCY: 237.394 cycles
cpu0_L2C TOTAL     ACCESS:   35684350  HIT:   26426177  MISS:    9258173
cpu0_L2C LOAD      ACCESS:   11893328  HIT:    9164775  MISS:    2728553
cpu0_L2C RFO       ACCESS:    3763708  HIT:    1934270  MISS:    1829438
cpu0_L2C PREFETCH  ACCESS:   13690209  HIT:    8995877  MISS:    4694332
cpu0_L2C WRITEBACK ACCESS:    6333879  HIT:    6328837  MISS:       5042
cpu0_L2C TRANSLATION ACCESS:       3226  HIT:       2418  MISS:        808
cpu0_L2C PREFETCH  REQUESTED:   42967967  ISSUED:   34721117  USEFUL:    6310524  USELESS:     146246
cpu0_L2C AVERAGE MISS LATENCY: 384.5 cycles
LLC TOTAL     ACCESS:   21519134  HIT:   13559579  MISS:    7959555
LLC LOAD      ACCESS:     966395  HIT:     390185  MISS:     576210
LLC RFO       ACCESS:    1829332  HIT:     205405  MISS:    1623927
LLC PREFETCH  ACCESS:   14863562  HIT:    9114986  MISS:    5748576
LLC WRITEBACK ACCESS:    3859037  HIT:    3848588  MISS:      10449
LLC TRANSLATION ACCESS:        808  HIT:        415  MISS:        393
LLC PREFETCH  REQUESTED:          0  ISSUED:          0  USEFUL:          0  USELESS:          0
LLC AVERAGE MISS LATENCY: 1089.51 cycles

DRAM Statistics
 CHANNEL 0
 RQ ROW_BUFFER_HIT:    1160321  ROW_BUFFER_MISS:    6785218
 DBUS AVG_CONGESTED_CYCLE:    3.98245
 WQ ROW_BUFFER_HIT:     326623  ROW_BUFFER_MISS:    2918488  FULL:         65


CPU 0 Branch Prediction Accuracy: 95.7887% MPKI: 3.74292 Average ROB Occupancy at Mispredict: 170.216
Branch type MPKI
BRANCH_DIRECT_JUMP: 0.00039
BRANCH_INDIRECT: 1.7e-05
BRANCH_CONDITIONAL: 3.73927
BRANCH_DIRECT_CALL: 0.002478
BRANCH_INDIRECT_CALL: 0
BRANCH_RETURN: 0.000763

***************** Done with 621.wrf_s-575B.champsimtrace.xz using spp-dev-agg, on Mon Apr 18 19:36:17 CDT 2022 ******************
