Started running file 625.x264_s-18B.champsimtrace.xz at time Mon Apr 18 20:21:47 CDT 2022 with prefetcher spp-dev-agg

*** ChampSim Multicore Out-of-Order Simulator ***

Warmup Instructions: 200000000
Simulation Instructions: 1000000000
Number of CPUs: 1
Off-chip DRAM Size: 4 GiB Channels: 1 Width: 64-bit Data Rate: 3200 MT/s

VirtualMemory physical capacity: 8588881920 num_ppages: 2096895
VirtualMemory page size: 4096 log2_page_size: 12

CPU 0 runs /home/faculty/p/pgratz/dpc3_traces/625.x264_s-18B.champsimtrace.xz
CPU 0 Bimodal branch predictor
Basic BTB sets: 1024 ways: 8 indirect buffer size: 4096 RAS size: 64
SPP-DEV original prefetcher
Heartbeat CPU 0 instructions: 10000003 cycles: 2500081 heartbeat IPC: 3.99987 cumulative IPC: 3.99987 (Simulation time: 0 hr 0 min 29 sec) 
Heartbeat CPU 0 instructions: 20000003 cycles: 5000081 heartbeat IPC: 4 cumulative IPC: 3.99994 (Simulation time: 0 hr 0 min 58 sec) 
Heartbeat CPU 0 instructions: 30000001 cycles: 7500252 heartbeat IPC: 3.99973 cumulative IPC: 3.99987 (Simulation time: 0 hr 1 min 27 sec) 
Heartbeat CPU 0 instructions: 40000001 cycles: 10000252 heartbeat IPC: 4 cumulative IPC: 3.9999 (Simulation time: 0 hr 1 min 56 sec) 
Heartbeat CPU 0 instructions: 50000001 cycles: 12500252 heartbeat IPC: 4 cumulative IPC: 3.99992 (Simulation time: 0 hr 2 min 25 sec) 
Heartbeat CPU 0 instructions: 60000001 cycles: 15000252 heartbeat IPC: 4 cumulative IPC: 3.99993 (Simulation time: 0 hr 2 min 54 sec) 
Heartbeat CPU 0 instructions: 70000001 cycles: 17500252 heartbeat IPC: 4 cumulative IPC: 3.99994 (Simulation time: 0 hr 3 min 23 sec) 
Heartbeat CPU 0 instructions: 80000001 cycles: 20000252 heartbeat IPC: 4 cumulative IPC: 3.99995 (Simulation time: 0 hr 3 min 52 sec) 
Heartbeat CPU 0 instructions: 90000001 cycles: 22500252 heartbeat IPC: 4 cumulative IPC: 3.99996 (Simulation time: 0 hr 4 min 21 sec) 
Heartbeat CPU 0 instructions: 100000001 cycles: 25000252 heartbeat IPC: 4 cumulative IPC: 3.99996 (Simulation time: 0 hr 4 min 50 sec) 
Heartbeat CPU 0 instructions: 110000001 cycles: 27500252 heartbeat IPC: 4 cumulative IPC: 3.99996 (Simulation time: 0 hr 5 min 19 sec) 
Heartbeat CPU 0 instructions: 120000001 cycles: 30000252 heartbeat IPC: 4 cumulative IPC: 3.99997 (Simulation time: 0 hr 5 min 48 sec) 
Heartbeat CPU 0 instructions: 130000001 cycles: 32500252 heartbeat IPC: 4 cumulative IPC: 3.99997 (Simulation time: 0 hr 6 min 16 sec) 
Heartbeat CPU 0 instructions: 140000000 cycles: 35011562 heartbeat IPC: 3.98199 cumulative IPC: 3.99868 (Simulation time: 0 hr 6 min 46 sec) 
Heartbeat CPU 0 instructions: 150000003 cycles: 37563420 heartbeat IPC: 3.91871 cumulative IPC: 3.99325 (Simulation time: 0 hr 7 min 16 sec) 
Heartbeat CPU 0 instructions: 160000003 cycles: 40086291 heartbeat IPC: 3.96374 cumulative IPC: 3.99139 (Simulation time: 0 hr 7 min 45 sec) 
Heartbeat CPU 0 instructions: 170000001 cycles: 42614507 heartbeat IPC: 3.95536 cumulative IPC: 3.98925 (Simulation time: 0 hr 8 min 14 sec) 
Heartbeat CPU 0 instructions: 180000001 cycles: 45135573 heartbeat IPC: 3.96658 cumulative IPC: 3.98799 (Simulation time: 0 hr 8 min 43 sec) 
Heartbeat CPU 0 instructions: 190000003 cycles: 47661887 heartbeat IPC: 3.95834 cumulative IPC: 3.98641 (Simulation time: 0 hr 9 min 12 sec) 
Heartbeat CPU 0 instructions: 200000002 cycles: 50192678 heartbeat IPC: 3.95133 cumulative IPC: 3.98464 (Simulation time: 0 hr 9 min 41 sec) 

Warmup complete CPU 0 instructions: 200000002 cycles: 50192678 (Simulation time: 0 hr 9 min 41 sec) 

Heartbeat CPU 0 instructions: 210000001 cycles: 54005490 heartbeat IPC: 2.62274 cumulative IPC: 2.62274 (Simulation time: 0 hr 10 min 10 sec) 
Heartbeat CPU 0 instructions: 220000002 cycles: 57927641 heartbeat IPC: 2.54962 cumulative IPC: 2.58566 (Simulation time: 0 hr 10 min 39 sec) 
Heartbeat CPU 0 instructions: 230000003 cycles: 61855560 heartbeat IPC: 2.54588 cumulative IPC: 2.57226 (Simulation time: 0 hr 11 min 9 sec) 
Heartbeat CPU 0 instructions: 240000004 cycles: 65743008 heartbeat IPC: 2.57238 cumulative IPC: 2.57229 (Simulation time: 0 hr 11 min 38 sec) 
Heartbeat CPU 0 instructions: 250000004 cycles: 69704207 heartbeat IPC: 2.52449 cumulative IPC: 2.56259 (Simulation time: 0 hr 12 min 7 sec) 
Heartbeat CPU 0 instructions: 260000001 cycles: 73559336 heartbeat IPC: 2.59395 cumulative IPC: 2.56776 (Simulation time: 0 hr 12 min 36 sec) 
Heartbeat CPU 0 instructions: 270000001 cycles: 77418708 heartbeat IPC: 2.5911 cumulative IPC: 2.57107 (Simulation time: 0 hr 13 min 5 sec) 
Heartbeat CPU 0 instructions: 280000000 cycles: 81367531 heartbeat IPC: 2.5324 cumulative IPC: 2.56617 (Simulation time: 0 hr 13 min 35 sec) 
Heartbeat CPU 0 instructions: 290000001 cycles: 85223376 heartbeat IPC: 2.59347 cumulative IPC: 2.56918 (Simulation time: 0 hr 14 min 4 sec) 
Heartbeat CPU 0 instructions: 300000002 cycles: 89054277 heartbeat IPC: 2.61035 cumulative IPC: 2.57323 (Simulation time: 0 hr 14 min 33 sec) 
Heartbeat CPU 0 instructions: 310000001 cycles: 93031235 heartbeat IPC: 2.51448 cumulative IPC: 2.56778 (Simulation time: 0 hr 15 min 2 sec) 
Heartbeat CPU 0 instructions: 320000001 cycles: 96871328 heartbeat IPC: 2.6041 cumulative IPC: 2.57077 (Simulation time: 0 hr 15 min 32 sec) 
Heartbeat CPU 0 instructions: 330000002 cycles: 100694272 heartbeat IPC: 2.61579 cumulative IPC: 2.57418 (Simulation time: 0 hr 16 min 1 sec) 
Heartbeat CPU 0 instructions: 340000001 cycles: 104519046 heartbeat IPC: 2.61453 cumulative IPC: 2.57702 (Simulation time: 0 hr 16 min 30 sec) 
Heartbeat CPU 0 instructions: 350000000 cycles: 108351495 heartbeat IPC: 2.6093 cumulative IPC: 2.57914 (Simulation time: 0 hr 17 min 0 sec) 
Heartbeat CPU 0 instructions: 360000002 cycles: 112173344 heartbeat IPC: 2.61654 cumulative IPC: 2.58145 (Simulation time: 0 hr 17 min 29 sec) 
Heartbeat CPU 0 instructions: 370000000 cycles: 115988871 heartbeat IPC: 2.62087 cumulative IPC: 2.58374 (Simulation time: 0 hr 17 min 59 sec) 
Heartbeat CPU 0 instructions: 380000002 cycles: 119828045 heartbeat IPC: 2.60473 cumulative IPC: 2.58489 (Simulation time: 0 hr 18 min 28 sec) 
Heartbeat CPU 0 instructions: 390000002 cycles: 123687201 heartbeat IPC: 2.59124 cumulative IPC: 2.58523 (Simulation time: 0 hr 18 min 57 sec) 
Heartbeat CPU 0 instructions: 400000001 cycles: 132604327 heartbeat IPC: 1.12144 cumulative IPC: 2.42684 (Simulation time: 0 hr 19 min 55 sec) 
Heartbeat CPU 0 instructions: 410000003 cycles: 136204420 heartbeat IPC: 2.77771 cumulative IPC: 2.44153 (Simulation time: 0 hr 20 min 45 sec) 
Heartbeat CPU 0 instructions: 420000002 cycles: 140222550 heartbeat IPC: 2.48872 cumulative IPC: 2.44363 (Simulation time: 0 hr 21 min 28 sec) 
Heartbeat CPU 0 instructions: 430000001 cycles: 144358557 heartbeat IPC: 2.41779 cumulative IPC: 2.4425 (Simulation time: 0 hr 22 min 1 sec) 
Heartbeat CPU 0 instructions: 440000001 cycles: 147988797 heartbeat IPC: 2.75464 cumulative IPC: 2.45409 (Simulation time: 0 hr 22 min 33 sec) 
Heartbeat CPU 0 instructions: 450000001 cycles: 151568286 heartbeat IPC: 2.79369 cumulative IPC: 2.46608 (Simulation time: 0 hr 23 min 4 sec) 
Heartbeat CPU 0 instructions: 460000004 cycles: 155214702 heartbeat IPC: 2.74242 cumulative IPC: 2.47567 (Simulation time: 0 hr 23 min 36 sec) 
Heartbeat CPU 0 instructions: 470000000 cycles: 158871811 heartbeat IPC: 2.7344 cumulative IPC: 2.48438 (Simulation time: 0 hr 24 min 7 sec) 
Heartbeat CPU 0 instructions: 480000002 cycles: 162510744 heartbeat IPC: 2.74806 cumulative IPC: 2.49292 (Simulation time: 0 hr 24 min 39 sec) 
Heartbeat CPU 0 instructions: 490000003 cycles: 166179030 heartbeat IPC: 2.72607 cumulative IPC: 2.50029 (Simulation time: 0 hr 25 min 10 sec) 
Heartbeat CPU 0 instructions: 500000002 cycles: 169824216 heartbeat IPC: 2.74334 cumulative IPC: 2.5077 (Simulation time: 0 hr 25 min 42 sec) 
Heartbeat CPU 0 instructions: 510000004 cycles: 173447381 heartbeat IPC: 2.76002 cumulative IPC: 2.51512 (Simulation time: 0 hr 26 min 13 sec) 
Heartbeat CPU 0 instructions: 520000003 cycles: 177034262 heartbeat IPC: 2.78794 cumulative IPC: 2.52283 (Simulation time: 0 hr 26 min 44 sec) 
Heartbeat CPU 0 instructions: 530000003 cycles: 180664180 heartbeat IPC: 2.75488 cumulative IPC: 2.52929 (Simulation time: 0 hr 27 min 15 sec) 
Heartbeat CPU 0 instructions: 540000004 cycles: 184297781 heartbeat IPC: 2.75209 cumulative IPC: 2.53532 (Simulation time: 0 hr 27 min 46 sec) 
Heartbeat CPU 0 instructions: 550000001 cycles: 187840096 heartbeat IPC: 2.82301 cumulative IPC: 2.54273 (Simulation time: 0 hr 28 min 17 sec) 
Heartbeat CPU 0 instructions: 560000000 cycles: 191422136 heartbeat IPC: 2.7917 cumulative IPC: 2.54904 (Simulation time: 0 hr 28 min 47 sec) 
Heartbeat CPU 0 instructions: 570000001 cycles: 200042330 heartbeat IPC: 1.16007 cumulative IPC: 2.46914 (Simulation time: 0 hr 29 min 48 sec) 
Heartbeat CPU 0 instructions: 580000004 cycles: 203751731 heartbeat IPC: 2.69585 cumulative IPC: 2.47462 (Simulation time: 0 hr 30 min 48 sec) 
Heartbeat CPU 0 instructions: 590000004 cycles: 207926239 heartbeat IPC: 2.39549 cumulative IPC: 2.47252 (Simulation time: 0 hr 31 min 18 sec) 
Heartbeat CPU 0 instructions: 600000003 cycles: 211817302 heartbeat IPC: 2.56999 cumulative IPC: 2.47487 (Simulation time: 0 hr 31 min 51 sec) 
Heartbeat CPU 0 instructions: 610000000 cycles: 215767572 heartbeat IPC: 2.53147 cumulative IPC: 2.47622 (Simulation time: 0 hr 32 min 25 sec) 
Heartbeat CPU 0 instructions: 620000003 cycles: 219685483 heartbeat IPC: 2.55238 cumulative IPC: 2.47798 (Simulation time: 0 hr 32 min 58 sec) 
Heartbeat CPU 0 instructions: 630000003 cycles: 223622379 heartbeat IPC: 2.54007 cumulative IPC: 2.47939 (Simulation time: 0 hr 33 min 32 sec) 
Heartbeat CPU 0 instructions: 640000002 cycles: 227549694 heartbeat IPC: 2.54627 cumulative IPC: 2.48087 (Simulation time: 0 hr 34 min 5 sec) 
Heartbeat CPU 0 instructions: 650000002 cycles: 231461112 heartbeat IPC: 2.55662 cumulative IPC: 2.48251 (Simulation time: 0 hr 34 min 39 sec) 
Heartbeat CPU 0 instructions: 660000000 cycles: 235346400 heartbeat IPC: 2.57381 cumulative IPC: 2.48442 (Simulation time: 0 hr 35 min 13 sec) 
Heartbeat CPU 0 instructions: 670000004 cycles: 243668670 heartbeat IPC: 1.2016 cumulative IPC: 2.42924 (Simulation time: 0 hr 36 min 20 sec) 
Heartbeat CPU 0 instructions: 680000002 cycles: 247591025 heartbeat IPC: 2.54949 cumulative IPC: 2.43163 (Simulation time: 0 hr 37 min 10 sec) 
Heartbeat CPU 0 instructions: 690000000 cycles: 251698774 heartbeat IPC: 2.43442 cumulative IPC: 2.43169 (Simulation time: 0 hr 37 min 42 sec) 
Heartbeat CPU 0 instructions: 700000000 cycles: 255615635 heartbeat IPC: 2.55306 cumulative IPC: 2.434 (Simulation time: 0 hr 38 min 15 sec) 
Heartbeat CPU 0 instructions: 710000002 cycles: 259540642 heartbeat IPC: 2.54777 cumulative IPC: 2.43614 (Simulation time: 0 hr 38 min 48 sec) 
Heartbeat CPU 0 instructions: 720000001 cycles: 263464764 heartbeat IPC: 2.54834 cumulative IPC: 2.4382 (Simulation time: 0 hr 39 min 21 sec) 
Heartbeat CPU 0 instructions: 730000000 cycles: 267409381 heartbeat IPC: 2.5351 cumulative IPC: 2.43996 (Simulation time: 0 hr 39 min 55 sec) 
Heartbeat CPU 0 instructions: 740000002 cycles: 271349796 heartbeat IPC: 2.5378 cumulative IPC: 2.4417 (Simulation time: 0 hr 40 min 28 sec) 
Heartbeat CPU 0 instructions: 750000001 cycles: 275287184 heartbeat IPC: 2.53975 cumulative IPC: 2.44342 (Simulation time: 0 hr 41 min 1 sec) 
Heartbeat CPU 0 instructions: 760000000 cycles: 283659524 heartbeat IPC: 1.19441 cumulative IPC: 2.39863 (Simulation time: 0 hr 41 min 57 sec) 
Heartbeat CPU 0 instructions: 770000000 cycles: 287198668 heartbeat IPC: 2.82554 cumulative IPC: 2.405 (Simulation time: 0 hr 42 min 48 sec) 
Heartbeat CPU 0 instructions: 780000003 cycles: 291346132 heartbeat IPC: 2.41111 cumulative IPC: 2.40511 (Simulation time: 0 hr 43 min 27 sec) 
Heartbeat CPU 0 instructions: 790000000 cycles: 295095119 heartbeat IPC: 2.66739 cumulative IPC: 2.40912 (Simulation time: 0 hr 43 min 55 sec) 
Heartbeat CPU 0 instructions: 800000002 cycles: 298846539 heartbeat IPC: 2.66566 cumulative IPC: 2.41299 (Simulation time: 0 hr 44 min 22 sec) 
Heartbeat CPU 0 instructions: 810000004 cycles: 302599923 heartbeat IPC: 2.66426 cumulative IPC: 2.41673 (Simulation time: 0 hr 44 min 50 sec) 
Heartbeat CPU 0 instructions: 820000000 cycles: 306356817 heartbeat IPC: 2.66177 cumulative IPC: 2.42032 (Simulation time: 0 hr 45 min 17 sec) 
Heartbeat CPU 0 instructions: 830000000 cycles: 310107297 heartbeat IPC: 2.66633 cumulative IPC: 2.42387 (Simulation time: 0 hr 45 min 43 sec) 
Heartbeat CPU 0 instructions: 840000003 cycles: 313874826 heartbeat IPC: 2.65426 cumulative IPC: 2.42716 (Simulation time: 0 hr 46 min 10 sec) 
Heartbeat CPU 0 instructions: 850000000 cycles: 317601545 heartbeat IPC: 2.68332 cumulative IPC: 2.43073 (Simulation time: 0 hr 46 min 37 sec) 
Heartbeat CPU 0 instructions: 860000000 cycles: 321337238 heartbeat IPC: 2.67688 cumulative IPC: 2.43413 (Simulation time: 0 hr 47 min 3 sec) 
Heartbeat CPU 0 instructions: 870000004 cycles: 325052174 heartbeat IPC: 2.69184 cumulative IPC: 2.43761 (Simulation time: 0 hr 47 min 30 sec) 
Heartbeat CPU 0 instructions: 880000001 cycles: 328858106 heartbeat IPC: 2.62748 cumulative IPC: 2.4402 (Simulation time: 0 hr 47 min 57 sec) 
Heartbeat CPU 0 instructions: 890000001 cycles: 332691200 heartbeat IPC: 2.60886 cumulative IPC: 2.44249 (Simulation time: 0 hr 48 min 23 sec) 
Heartbeat CPU 0 instructions: 900000000 cycles: 336528086 heartbeat IPC: 2.60628 cumulative IPC: 2.44469 (Simulation time: 0 hr 48 min 48 sec) 
Heartbeat CPU 0 instructions: 910000001 cycles: 340366733 heartbeat IPC: 2.60508 cumulative IPC: 2.44681 (Simulation time: 0 hr 49 min 15 sec) 
Heartbeat CPU 0 instructions: 920000000 cycles: 344222236 heartbeat IPC: 2.59369 cumulative IPC: 2.44873 (Simulation time: 0 hr 49 min 40 sec) 
Heartbeat CPU 0 instructions: 930000000 cycles: 348069487 heartbeat IPC: 2.59926 cumulative IPC: 2.45068 (Simulation time: 0 hr 50 min 7 sec) 
Heartbeat CPU 0 instructions: 940000003 cycles: 351898332 heartbeat IPC: 2.61175 cumulative IPC: 2.45272 (Simulation time: 0 hr 50 min 33 sec) 
Heartbeat CPU 0 instructions: 950000002 cycles: 355737213 heartbeat IPC: 2.60493 cumulative IPC: 2.45463 (Simulation time: 0 hr 50 min 59 sec) 
Heartbeat CPU 0 instructions: 960000002 cycles: 359578381 heartbeat IPC: 2.60337 cumulative IPC: 2.45648 (Simulation time: 0 hr 51 min 25 sec) 
Heartbeat CPU 0 instructions: 970000002 cycles: 363412406 heartbeat IPC: 2.60823 cumulative IPC: 2.45834 (Simulation time: 0 hr 51 min 52 sec) 
Heartbeat CPU 0 instructions: 980000003 cycles: 367200649 heartbeat IPC: 2.63975 cumulative IPC: 2.46051 (Simulation time: 0 hr 52 min 18 sec) 
Heartbeat CPU 0 instructions: 990000000 cycles: 371022021 heartbeat IPC: 2.61686 cumulative IPC: 2.46237 (Simulation time: 0 hr 52 min 44 sec) 
Heartbeat CPU 0 instructions: 1000000003 cycles: 374837202 heartbeat IPC: 2.62111 cumulative IPC: 2.46423 (Simulation time: 0 hr 53 min 10 sec) 
Heartbeat CPU 0 instructions: 1010000000 cycles: 378614605 heartbeat IPC: 2.64732 cumulative IPC: 2.46634 (Simulation time: 0 hr 53 min 37 sec) 
Heartbeat CPU 0 instructions: 1020000002 cycles: 382088838 heartbeat IPC: 2.87833 cumulative IPC: 2.47065 (Simulation time: 0 hr 54 min 4 sec) 
Heartbeat CPU 0 instructions: 1030000004 cycles: 385341600 heartbeat IPC: 3.07431 cumulative IPC: 2.47651 (Simulation time: 0 hr 54 min 31 sec) 
Heartbeat CPU 0 instructions: 1040000004 cycles: 388591665 heartbeat IPC: 3.07686 cumulative IPC: 2.48228 (Simulation time: 0 hr 54 min 57 sec) 
Heartbeat CPU 0 instructions: 1050000000 cycles: 391840963 heartbeat IPC: 3.07759 cumulative IPC: 2.48794 (Simulation time: 0 hr 55 min 23 sec) 
Heartbeat CPU 0 instructions: 1060000000 cycles: 395673777 heartbeat IPC: 2.60905 cumulative IPC: 2.48928 (Simulation time: 0 hr 55 min 50 sec) 
Heartbeat CPU 0 instructions: 1070000000 cycles: 399689651 heartbeat IPC: 2.49012 cumulative IPC: 2.48929 (Simulation time: 0 hr 56 min 16 sec) 
Heartbeat CPU 0 instructions: 1080000002 cycles: 403714865 heartbeat IPC: 2.48434 cumulative IPC: 2.48924 (Simulation time: 0 hr 56 min 44 sec) 
Heartbeat CPU 0 instructions: 1090000002 cycles: 407735452 heartbeat IPC: 2.4872 cumulative IPC: 2.48921 (Simulation time: 0 hr 57 min 12 sec) 
Heartbeat CPU 0 instructions: 1100000003 cycles: 411735206 heartbeat IPC: 2.50015 cumulative IPC: 2.48933 (Simulation time: 0 hr 57 min 41 sec) 
Heartbeat CPU 0 instructions: 1110000001 cycles: 415528497 heartbeat IPC: 2.63623 cumulative IPC: 2.49086 (Simulation time: 0 hr 58 min 9 sec) 
Heartbeat CPU 0 instructions: 1120000000 cycles: 419280764 heartbeat IPC: 2.66506 cumulative IPC: 2.49263 (Simulation time: 0 hr 58 min 38 sec) 
Heartbeat CPU 0 instructions: 1130000001 cycles: 423033490 heartbeat IPC: 2.66473 cumulative IPC: 2.49436 (Simulation time: 0 hr 59 min 6 sec) 
Heartbeat CPU 0 instructions: 1140000002 cycles: 426791547 heartbeat IPC: 2.66095 cumulative IPC: 2.49602 (Simulation time: 0 hr 59 min 34 sec) 
Heartbeat CPU 0 instructions: 1150000004 cycles: 430520240 heartbeat IPC: 2.68191 cumulative IPC: 2.49785 (Simulation time: 1 hr 0 min 3 sec) 
Heartbeat CPU 0 instructions: 1160000003 cycles: 434263569 heartbeat IPC: 2.67142 cumulative IPC: 2.49954 (Simulation time: 1 hr 0 min 31 sec) 
Heartbeat CPU 0 instructions: 1170000000 cycles: 437988012 heartbeat IPC: 2.68496 cumulative IPC: 2.50132 (Simulation time: 1 hr 1 min 0 sec) 
Heartbeat CPU 0 instructions: 1180000002 cycles: 441706364 heartbeat IPC: 2.68936 cumulative IPC: 2.50311 (Simulation time: 1 hr 1 min 29 sec) 
Heartbeat CPU 0 instructions: 1190000003 cycles: 445397154 heartbeat IPC: 2.70945 cumulative IPC: 2.50503 (Simulation time: 1 hr 1 min 57 sec) 
Heartbeat CPU 0 instructions: 1200000000 cycles: 449096559 heartbeat IPC: 2.70314 cumulative IPC: 2.50687 (Simulation time: 1 hr 2 min 26 sec) 
Finished CPU 0 instructions: 1000000003 cycles: 398903882 cumulative IPC: 2.50687 (Simulation time: 1 hr 2 min 26 sec) 

ChampSim completed all CPUs

Region of Interest Statistics

CPU 0 cumulative IPC: 2.50687 instructions: 1000000003 cycles: 398903882
cpu0_DTLB TOTAL     ACCESS:  122392465  HIT:  121326185  MISS:    1066280
cpu0_DTLB LOAD      ACCESS:   86380773  HIT:   85694660  MISS:     686113
cpu0_DTLB RFO       ACCESS:   36011692  HIT:   35631525  MISS:     380167
cpu0_DTLB PREFETCH  ACCESS:          0  HIT:          0  MISS:          0
cpu0_DTLB WRITEBACK ACCESS:          0  HIT:          0  MISS:          0
cpu0_DTLB TRANSLATION ACCESS:          0  HIT:          0  MISS:          0
cpu0_DTLB PREFETCH  REQUESTED:          0  ISSUED:          0  USEFUL:          0  USELESS:          0
cpu0_DTLB AVERAGE MISS LATENCY: 12.3852 cycles
cpu0_ITLB TOTAL     ACCESS:   64399082  HIT:   64397615  MISS:       1467
cpu0_ITLB LOAD      ACCESS:   64399082  HIT:   64397615  MISS:       1467
cpu0_ITLB RFO       ACCESS:          0  HIT:          0  MISS:          0
cpu0_ITLB PREFETCH  ACCESS:          0  HIT:          0  MISS:          0
cpu0_ITLB WRITEBACK ACCESS:          0  HIT:          0  MISS:          0
cpu0_ITLB TRANSLATION ACCESS:          0  HIT:          0  MISS:          0
cpu0_ITLB PREFETCH  REQUESTED:          0  ISSUED:          0  USEFUL:          0  USELESS:          0
cpu0_ITLB AVERAGE MISS LATENCY: 18.0716 cycles
cpu0_L1I TOTAL     ACCESS:   26420162  HIT:   24792072  MISS:    1628090
cpu0_L1I LOAD      ACCESS:   26420162  HIT:   24792072  MISS:    1628090
cpu0_L1I RFO       ACCESS:          0  HIT:          0  MISS:          0
cpu0_L1I PREFETCH  ACCESS:          0  HIT:          0  MISS:          0
cpu0_L1I WRITEBACK ACCESS:          0  HIT:          0  MISS:          0
cpu0_L1I TRANSLATION ACCESS:          0  HIT:          0  MISS:          0
cpu0_L1I PREFETCH  REQUESTED:          0  ISSUED:          0  USEFUL:          0  USELESS:          0
cpu0_L1I AVERAGE MISS LATENCY: 12.4434 cycles
cpu0_STLB TOTAL     ACCESS:    1067747  HIT:    1060087  MISS:       7660
cpu0_STLB LOAD      ACCESS:     687580  HIT:     684369  MISS:       3211
cpu0_STLB RFO       ACCESS:     380167  HIT:     375718  MISS:       4449
cpu0_STLB PREFETCH  ACCESS:          0  HIT:          0  MISS:          0
cpu0_STLB WRITEBACK ACCESS:          0  HIT:          0  MISS:          0
cpu0_STLB TRANSLATION ACCESS:          0  HIT:          0  MISS:          0
cpu0_STLB PREFETCH  REQUESTED:          0  ISSUED:          0  USEFUL:          0  USELESS:          0
cpu0_STLB AVERAGE MISS LATENCY: 186.068 cycles
cpu0_L1D TOTAL     ACCESS:  148183743  HIT:  146316361  MISS:    1867382
cpu0_L1D LOAD      ACCESS:   75293880  HIT:   73975263  MISS:    1318617
cpu0_L1D RFO       ACCESS:   72883026  HIT:   72335055  MISS:     547971
cpu0_L1D PREFETCH  ACCESS:          0  HIT:          0  MISS:          0
cpu0_L1D WRITEBACK ACCESS:          0  HIT:          0  MISS:          0
cpu0_L1D TRANSLATION ACCESS:       6837  HIT:       6043  MISS:        794
cpu0_L1D PREFETCH  REQUESTED:          0  ISSUED:          0  USEFUL:          0  USELESS:          0
cpu0_L1D AVERAGE MISS LATENCY: 197.019 cycles
cpu0_L2C TOTAL     ACCESS:    6116719  HIT:    4834216  MISS:    1282503
cpu0_L2C LOAD      ACCESS:    2946677  HIT:    2489333  MISS:     457344
cpu0_L2C RFO       ACCESS:     544068  HIT:     147619  MISS:     396449
cpu0_L2C PREFETCH  ACCESS:    1965805  HIT:    1538656  MISS:     427149
cpu0_L2C WRITEBACK ACCESS:     659375  HIT:     657941  MISS:       1434
cpu0_L2C TRANSLATION ACCESS:        794  HIT:        667  MISS:        127
cpu0_L2C PREFETCH  REQUESTED:    5039167  ISSUED:    3923875  USEFUL:     617726  USELESS:      15332
cpu0_L2C AVERAGE MISS LATENCY: 231.861 cycles
LLC TOTAL     ACCESS:    2639875  HIT:    1531561  MISS:    1108314
LLC LOAD      ACCESS:     251652  HIT:     128730  MISS:     122922
LLC RFO       ACCESS:     396304  HIT:       6318  MISS:     389986
LLC PREFETCH  ACCESS:    1505896  HIT:     911985  MISS:     593911
LLC WRITEBACK ACCESS:     485896  HIT:     484465  MISS:       1431
LLC TRANSLATION ACCESS:        127  HIT:         63  MISS:         64
LLC PREFETCH  REQUESTED:          0  ISSUED:          0  USEFUL:          0  USELESS:          0
LLC AVERAGE MISS LATENCY: 593.663 cycles

DRAM Statistics
 CHANNEL 0
 RQ ROW_BUFFER_HIT:     113236  ROW_BUFFER_MISS:     993381
 DBUS AVG_CONGESTED_CYCLE:    3.96474
 WQ ROW_BUFFER_HIT:      52476  ROW_BUFFER_MISS:     439485  FULL:          0


CPU 0 Branch Prediction Accuracy: 85.7768% MPKI: 5.31698 Average ROB Occupancy at Mispredict: 107.061
Branch type MPKI
BRANCH_DIRECT_JUMP: 0.000117
BRANCH_INDIRECT: 0.000602
BRANCH_CONDITIONAL: 5.23547
BRANCH_DIRECT_CALL: 0.000215
BRANCH_INDIRECT_CALL: 0.014074
BRANCH_RETURN: 0.0665

***************** Done with 625.x264_s-18B.champsimtrace.xz using spp-dev-agg, on Mon Apr 18 21:24:13 CDT 2022 ******************
