Started running file 644.nab_s-5853B.champsimtrace.xz at time Mon Apr 18 16:35:17 CDT 2022 with prefetcher spp-dev-agg

*** ChampSim Multicore Out-of-Order Simulator ***

Warmup Instructions: 200000000
Simulation Instructions: 1000000000
Number of CPUs: 1
Off-chip DRAM Size: 4 GiB Channels: 1 Width: 64-bit Data Rate: 3200 MT/s

VirtualMemory physical capacity: 8588881920 num_ppages: 2096895
VirtualMemory page size: 4096 log2_page_size: 12

CPU 0 runs /home/faculty/p/pgratz/dpc3_traces/644.nab_s-5853B.champsimtrace.xz
CPU 0 Bimodal branch predictor
Basic BTB sets: 1024 ways: 8 indirect buffer size: 4096 RAS size: 64
SPP-DEV original prefetcher
Heartbeat CPU 0 instructions: 10000001 cycles: 2500088 heartbeat IPC: 3.99986 cumulative IPC: 3.99986 (Simulation time: 0 hr 0 min 32 sec) 
Heartbeat CPU 0 instructions: 20000001 cycles: 5000088 heartbeat IPC: 4 cumulative IPC: 3.99993 (Simulation time: 0 hr 1 min 3 sec) 
Heartbeat CPU 0 instructions: 30000001 cycles: 7500088 heartbeat IPC: 4 cumulative IPC: 3.99995 (Simulation time: 0 hr 1 min 35 sec) 
Heartbeat CPU 0 instructions: 40000001 cycles: 10000088 heartbeat IPC: 4 cumulative IPC: 3.99996 (Simulation time: 0 hr 2 min 7 sec) 
Heartbeat CPU 0 instructions: 50000001 cycles: 12500088 heartbeat IPC: 4 cumulative IPC: 3.99997 (Simulation time: 0 hr 2 min 38 sec) 
Heartbeat CPU 0 instructions: 60000001 cycles: 15000088 heartbeat IPC: 4 cumulative IPC: 3.99998 (Simulation time: 0 hr 3 min 10 sec) 
Heartbeat CPU 0 instructions: 70000001 cycles: 17500088 heartbeat IPC: 4 cumulative IPC: 3.99998 (Simulation time: 0 hr 3 min 42 sec) 
Heartbeat CPU 0 instructions: 80000001 cycles: 20000088 heartbeat IPC: 4 cumulative IPC: 3.99998 (Simulation time: 0 hr 4 min 13 sec) 
Heartbeat CPU 0 instructions: 90000001 cycles: 22500088 heartbeat IPC: 4 cumulative IPC: 3.99998 (Simulation time: 0 hr 4 min 45 sec) 
Heartbeat CPU 0 instructions: 100000001 cycles: 25000088 heartbeat IPC: 4 cumulative IPC: 3.99999 (Simulation time: 0 hr 5 min 17 sec) 
Heartbeat CPU 0 instructions: 110000001 cycles: 27500088 heartbeat IPC: 4 cumulative IPC: 3.99999 (Simulation time: 0 hr 5 min 48 sec) 
Heartbeat CPU 0 instructions: 120000001 cycles: 30000088 heartbeat IPC: 4 cumulative IPC: 3.99999 (Simulation time: 0 hr 6 min 20 sec) 
Heartbeat CPU 0 instructions: 130000001 cycles: 32500088 heartbeat IPC: 4 cumulative IPC: 3.99999 (Simulation time: 0 hr 6 min 52 sec) 
Heartbeat CPU 0 instructions: 140000001 cycles: 35000088 heartbeat IPC: 4 cumulative IPC: 3.99999 (Simulation time: 0 hr 7 min 24 sec) 
Heartbeat CPU 0 instructions: 150000001 cycles: 37500088 heartbeat IPC: 4 cumulative IPC: 3.99999 (Simulation time: 0 hr 7 min 55 sec) 
Heartbeat CPU 0 instructions: 160000001 cycles: 40000088 heartbeat IPC: 4 cumulative IPC: 3.99999 (Simulation time: 0 hr 8 min 27 sec) 
Heartbeat CPU 0 instructions: 170000001 cycles: 42500088 heartbeat IPC: 4 cumulative IPC: 3.99999 (Simulation time: 0 hr 8 min 59 sec) 
Heartbeat CPU 0 instructions: 180000001 cycles: 45000088 heartbeat IPC: 4 cumulative IPC: 3.99999 (Simulation time: 0 hr 9 min 31 sec) 
Heartbeat CPU 0 instructions: 190000001 cycles: 47500088 heartbeat IPC: 4 cumulative IPC: 3.99999 (Simulation time: 0 hr 10 min 2 sec) 
Heartbeat CPU 0 instructions: 200000001 cycles: 50000088 heartbeat IPC: 4 cumulative IPC: 3.99999 (Simulation time: 0 hr 10 min 34 sec) 

Warmup complete CPU 0 instructions: 200000001 cycles: 50000088 (Simulation time: 0 hr 10 min 34 sec) 

Heartbeat CPU 0 instructions: 210000002 cycles: 57841987 heartbeat IPC: 1.2752 cumulative IPC: 1.2752 (Simulation time: 0 hr 11 min 10 sec) 
Heartbeat CPU 0 instructions: 220000003 cycles: 65698241 heartbeat IPC: 1.27287 cumulative IPC: 1.27404 (Simulation time: 0 hr 11 min 46 sec) 
Heartbeat CPU 0 instructions: 230000001 cycles: 73537012 heartbeat IPC: 1.27571 cumulative IPC: 1.27459 (Simulation time: 0 hr 12 min 22 sec) 
Heartbeat CPU 0 instructions: 240000001 cycles: 81392281 heartbeat IPC: 1.27303 cumulative IPC: 1.2742 (Simulation time: 0 hr 12 min 58 sec) 
Heartbeat CPU 0 instructions: 250000003 cycles: 89292895 heartbeat IPC: 1.26572 cumulative IPC: 1.2725 (Simulation time: 0 hr 13 min 34 sec) 
Heartbeat CPU 0 instructions: 260000000 cycles: 97165808 heartbeat IPC: 1.27018 cumulative IPC: 1.27211 (Simulation time: 0 hr 14 min 10 sec) 
Heartbeat CPU 0 instructions: 270000002 cycles: 105006188 heartbeat IPC: 1.27545 cumulative IPC: 1.27259 (Simulation time: 0 hr 14 min 46 sec) 
Heartbeat CPU 0 instructions: 280000002 cycles: 112832969 heartbeat IPC: 1.27766 cumulative IPC: 1.27322 (Simulation time: 0 hr 15 min 22 sec) 
Heartbeat CPU 0 instructions: 290000000 cycles: 120656270 heartbeat IPC: 1.27823 cumulative IPC: 1.27377 (Simulation time: 0 hr 15 min 58 sec) 
Heartbeat CPU 0 instructions: 300000000 cycles: 128466686 heartbeat IPC: 1.28034 cumulative IPC: 1.27443 (Simulation time: 0 hr 16 min 33 sec) 
Heartbeat CPU 0 instructions: 310000004 cycles: 136288155 heartbeat IPC: 1.27853 cumulative IPC: 1.2748 (Simulation time: 0 hr 17 min 9 sec) 
Heartbeat CPU 0 instructions: 320000001 cycles: 144112347 heartbeat IPC: 1.27809 cumulative IPC: 1.27507 (Simulation time: 0 hr 17 min 45 sec) 
Heartbeat CPU 0 instructions: 330000002 cycles: 151978143 heartbeat IPC: 1.27133 cumulative IPC: 1.27478 (Simulation time: 0 hr 18 min 21 sec) 
Heartbeat CPU 0 instructions: 340000000 cycles: 159881511 heartbeat IPC: 1.26528 cumulative IPC: 1.2741 (Simulation time: 0 hr 18 min 57 sec) 
Heartbeat CPU 0 instructions: 350000000 cycles: 167778143 heartbeat IPC: 1.26636 cumulative IPC: 1.27358 (Simulation time: 0 hr 19 min 33 sec) 
Heartbeat CPU 0 instructions: 360000003 cycles: 175669755 heartbeat IPC: 1.26717 cumulative IPC: 1.27318 (Simulation time: 0 hr 20 min 9 sec) 
Heartbeat CPU 0 instructions: 370000003 cycles: 183542482 heartbeat IPC: 1.27021 cumulative IPC: 1.273 (Simulation time: 0 hr 20 min 45 sec) 
Heartbeat CPU 0 instructions: 380000004 cycles: 191433462 heartbeat IPC: 1.26727 cumulative IPC: 1.27268 (Simulation time: 0 hr 21 min 21 sec) 
Heartbeat CPU 0 instructions: 390000004 cycles: 199295482 heartbeat IPC: 1.27194 cumulative IPC: 1.27264 (Simulation time: 0 hr 21 min 57 sec) 
Heartbeat CPU 0 instructions: 400000002 cycles: 207155273 heartbeat IPC: 1.2723 cumulative IPC: 1.27263 (Simulation time: 0 hr 22 min 33 sec) 
Heartbeat CPU 0 instructions: 410000003 cycles: 215003595 heartbeat IPC: 1.27416 cumulative IPC: 1.2727 (Simulation time: 0 hr 23 min 9 sec) 
Heartbeat CPU 0 instructions: 420000000 cycles: 222857235 heartbeat IPC: 1.27329 cumulative IPC: 1.27273 (Simulation time: 0 hr 23 min 45 sec) 
Heartbeat CPU 0 instructions: 430000000 cycles: 230733893 heartbeat IPC: 1.26957 cumulative IPC: 1.27259 (Simulation time: 0 hr 24 min 21 sec) 
Heartbeat CPU 0 instructions: 440000002 cycles: 238650962 heartbeat IPC: 1.26309 cumulative IPC: 1.27219 (Simulation time: 0 hr 24 min 57 sec) 
Heartbeat CPU 0 instructions: 450000004 cycles: 246574104 heartbeat IPC: 1.26213 cumulative IPC: 1.27179 (Simulation time: 0 hr 25 min 33 sec) 
Heartbeat CPU 0 instructions: 460000003 cycles: 254508098 heartbeat IPC: 1.2604 cumulative IPC: 1.27134 (Simulation time: 0 hr 26 min 10 sec) 
Heartbeat CPU 0 instructions: 470000003 cycles: 262499763 heartbeat IPC: 1.2513 cumulative IPC: 1.27059 (Simulation time: 0 hr 26 min 46 sec) 
Heartbeat CPU 0 instructions: 480000001 cycles: 270484431 heartbeat IPC: 1.2524 cumulative IPC: 1.26993 (Simulation time: 0 hr 27 min 22 sec) 
Heartbeat CPU 0 instructions: 490000003 cycles: 278461761 heartbeat IPC: 1.25355 cumulative IPC: 1.26936 (Simulation time: 0 hr 27 min 58 sec) 
Heartbeat CPU 0 instructions: 500000000 cycles: 286487706 heartbeat IPC: 1.24596 cumulative IPC: 1.26857 (Simulation time: 0 hr 28 min 35 sec) 
Heartbeat CPU 0 instructions: 510000000 cycles: 294524961 heartbeat IPC: 1.24421 cumulative IPC: 1.26776 (Simulation time: 0 hr 29 min 11 sec) 
Heartbeat CPU 0 instructions: 520000000 cycles: 302569740 heartbeat IPC: 1.24304 cumulative IPC: 1.26698 (Simulation time: 0 hr 29 min 47 sec) 
Heartbeat CPU 0 instructions: 530000003 cycles: 310585336 heartbeat IPC: 1.24757 cumulative IPC: 1.26638 (Simulation time: 0 hr 30 min 24 sec) 
Heartbeat CPU 0 instructions: 540000003 cycles: 318534015 heartbeat IPC: 1.25807 cumulative IPC: 1.26613 (Simulation time: 0 hr 31 min 0 sec) 
Heartbeat CPU 0 instructions: 550000002 cycles: 326476211 heartbeat IPC: 1.2591 cumulative IPC: 1.26593 (Simulation time: 0 hr 31 min 36 sec) 
Heartbeat CPU 0 instructions: 560000001 cycles: 334383096 heartbeat IPC: 1.26472 cumulative IPC: 1.2659 (Simulation time: 0 hr 32 min 12 sec) 
Heartbeat CPU 0 instructions: 570000002 cycles: 342318762 heartbeat IPC: 1.26013 cumulative IPC: 1.26574 (Simulation time: 0 hr 32 min 48 sec) 
Heartbeat CPU 0 instructions: 580000000 cycles: 350220928 heartbeat IPC: 1.26548 cumulative IPC: 1.26573 (Simulation time: 0 hr 33 min 24 sec) 
Heartbeat CPU 0 instructions: 590000001 cycles: 358190423 heartbeat IPC: 1.25478 cumulative IPC: 1.26545 (Simulation time: 0 hr 34 min 0 sec) 
Heartbeat CPU 0 instructions: 600000003 cycles: 366103778 heartbeat IPC: 1.26369 cumulative IPC: 1.26541 (Simulation time: 0 hr 34 min 36 sec) 
Heartbeat CPU 0 instructions: 610000001 cycles: 374044727 heartbeat IPC: 1.2593 cumulative IPC: 1.26526 (Simulation time: 0 hr 35 min 12 sec) 
Heartbeat CPU 0 instructions: 620000000 cycles: 381958282 heartbeat IPC: 1.26365 cumulative IPC: 1.26522 (Simulation time: 0 hr 35 min 48 sec) 
Heartbeat CPU 0 instructions: 630000002 cycles: 389918365 heartbeat IPC: 1.25627 cumulative IPC: 1.26501 (Simulation time: 0 hr 36 min 24 sec) 
Heartbeat CPU 0 instructions: 640000000 cycles: 397869227 heartbeat IPC: 1.25773 cumulative IPC: 1.26484 (Simulation time: 0 hr 37 min 1 sec) 
Heartbeat CPU 0 instructions: 650000002 cycles: 405823371 heartbeat IPC: 1.25721 cumulative IPC: 1.26467 (Simulation time: 0 hr 37 min 37 sec) 
Heartbeat CPU 0 instructions: 660000000 cycles: 413812443 heartbeat IPC: 1.25171 cumulative IPC: 1.26439 (Simulation time: 0 hr 38 min 13 sec) 
Heartbeat CPU 0 instructions: 670000004 cycles: 421846229 heartbeat IPC: 1.24474 cumulative IPC: 1.26396 (Simulation time: 0 hr 38 min 49 sec) 
Heartbeat CPU 0 instructions: 680000000 cycles: 429869623 heartbeat IPC: 1.24635 cumulative IPC: 1.26359 (Simulation time: 0 hr 39 min 26 sec) 
Heartbeat CPU 0 instructions: 690000001 cycles: 437856257 heartbeat IPC: 1.25209 cumulative IPC: 1.26335 (Simulation time: 0 hr 40 min 2 sec) 
Heartbeat CPU 0 instructions: 700000004 cycles: 445825105 heartbeat IPC: 1.25489 cumulative IPC: 1.26318 (Simulation time: 0 hr 40 min 38 sec) 
Heartbeat CPU 0 instructions: 710000001 cycles: 453785109 heartbeat IPC: 1.25628 cumulative IPC: 1.26305 (Simulation time: 0 hr 41 min 14 sec) 
Heartbeat CPU 0 instructions: 720000003 cycles: 461875512 heartbeat IPC: 1.23603 cumulative IPC: 1.26252 (Simulation time: 0 hr 41 min 51 sec) 
Heartbeat CPU 0 instructions: 730000001 cycles: 469939540 heartbeat IPC: 1.24007 cumulative IPC: 1.26209 (Simulation time: 0 hr 42 min 27 sec) 
Heartbeat CPU 0 instructions: 740000002 cycles: 477912497 heartbeat IPC: 1.25424 cumulative IPC: 1.26194 (Simulation time: 0 hr 43 min 3 sec) 
Heartbeat CPU 0 instructions: 750000003 cycles: 485921274 heartbeat IPC: 1.24863 cumulative IPC: 1.2617 (Simulation time: 0 hr 43 min 40 sec) 
Heartbeat CPU 0 instructions: 760000001 cycles: 493862341 heartbeat IPC: 1.25928 cumulative IPC: 1.26165 (Simulation time: 0 hr 44 min 16 sec) 
Heartbeat CPU 0 instructions: 770000001 cycles: 501799380 heartbeat IPC: 1.25992 cumulative IPC: 1.26162 (Simulation time: 0 hr 44 min 52 sec) 
Heartbeat CPU 0 instructions: 780000002 cycles: 509746761 heartbeat IPC: 1.25828 cumulative IPC: 1.26156 (Simulation time: 0 hr 45 min 28 sec) 
Heartbeat CPU 0 instructions: 790000001 cycles: 517613203 heartbeat IPC: 1.27122 cumulative IPC: 1.26173 (Simulation time: 0 hr 46 min 4 sec) 
Heartbeat CPU 0 instructions: 800000000 cycles: 525499947 heartbeat IPC: 1.26795 cumulative IPC: 1.26183 (Simulation time: 0 hr 46 min 40 sec) 
Heartbeat CPU 0 instructions: 810000004 cycles: 533387175 heartbeat IPC: 1.26787 cumulative IPC: 1.26193 (Simulation time: 0 hr 47 min 16 sec) 
Heartbeat CPU 0 instructions: 820000000 cycles: 541234193 heartbeat IPC: 1.27437 cumulative IPC: 1.26213 (Simulation time: 0 hr 47 min 52 sec) 
Heartbeat CPU 0 instructions: 830000001 cycles: 549079552 heartbeat IPC: 1.27464 cumulative IPC: 1.26232 (Simulation time: 0 hr 48 min 28 sec) 
Heartbeat CPU 0 instructions: 840000000 cycles: 556928052 heartbeat IPC: 1.27413 cumulative IPC: 1.26251 (Simulation time: 0 hr 49 min 3 sec) 
Heartbeat CPU 0 instructions: 850000003 cycles: 564789644 heartbeat IPC: 1.27201 cumulative IPC: 1.26265 (Simulation time: 0 hr 49 min 39 sec) 
Heartbeat CPU 0 instructions: 860000004 cycles: 572665612 heartbeat IPC: 1.26969 cumulative IPC: 1.26276 (Simulation time: 0 hr 50 min 16 sec) 
Heartbeat CPU 0 instructions: 870000004 cycles: 580522918 heartbeat IPC: 1.2727 cumulative IPC: 1.26291 (Simulation time: 0 hr 50 min 52 sec) 
Heartbeat CPU 0 instructions: 880000000 cycles: 588406757 heartbeat IPC: 1.26842 cumulative IPC: 1.26299 (Simulation time: 0 hr 51 min 28 sec) 
Heartbeat CPU 0 instructions: 890000000 cycles: 596261252 heartbeat IPC: 1.27316 cumulative IPC: 1.26313 (Simulation time: 0 hr 52 min 4 sec) 
Heartbeat CPU 0 instructions: 900000000 cycles: 604098498 heartbeat IPC: 1.27596 cumulative IPC: 1.26331 (Simulation time: 0 hr 52 min 40 sec) 
Heartbeat CPU 0 instructions: 910000001 cycles: 611912957 heartbeat IPC: 1.27968 cumulative IPC: 1.26354 (Simulation time: 0 hr 53 min 16 sec) 
Heartbeat CPU 0 instructions: 920000004 cycles: 619758469 heartbeat IPC: 1.27461 cumulative IPC: 1.26369 (Simulation time: 0 hr 53 min 51 sec) 
Heartbeat CPU 0 instructions: 930000000 cycles: 627692116 heartbeat IPC: 1.26045 cumulative IPC: 1.26365 (Simulation time: 0 hr 54 min 27 sec) 
Heartbeat CPU 0 instructions: 940000000 cycles: 635703406 heartbeat IPC: 1.24824 cumulative IPC: 1.26344 (Simulation time: 0 hr 55 min 4 sec) 
Heartbeat CPU 0 instructions: 950000000 cycles: 643706828 heartbeat IPC: 1.24947 cumulative IPC: 1.26325 (Simulation time: 0 hr 55 min 40 sec) 
Heartbeat CPU 0 instructions: 960000002 cycles: 651837441 heartbeat IPC: 1.22992 cumulative IPC: 1.2628 (Simulation time: 0 hr 56 min 16 sec) 
Heartbeat CPU 0 instructions: 970000000 cycles: 659955256 heartbeat IPC: 1.23186 cumulative IPC: 1.26239 (Simulation time: 0 hr 56 min 53 sec) 
Heartbeat CPU 0 instructions: 980000000 cycles: 668042026 heartbeat IPC: 1.23659 cumulative IPC: 1.26205 (Simulation time: 0 hr 57 min 29 sec) 
Heartbeat CPU 0 instructions: 990000004 cycles: 676116571 heartbeat IPC: 1.23846 cumulative IPC: 1.26175 (Simulation time: 0 hr 58 min 6 sec) 
Heartbeat CPU 0 instructions: 1000000001 cycles: 684186743 heartbeat IPC: 1.23913 cumulative IPC: 1.26146 (Simulation time: 0 hr 58 min 42 sec) 
Heartbeat CPU 0 instructions: 1010000002 cycles: 692359822 heartbeat IPC: 1.22353 cumulative IPC: 1.26098 (Simulation time: 0 hr 59 min 19 sec) 
Heartbeat CPU 0 instructions: 1020000002 cycles: 700613504 heartbeat IPC: 1.21158 cumulative IPC: 1.26035 (Simulation time: 0 hr 59 min 55 sec) 
Heartbeat CPU 0 instructions: 1030000001 cycles: 708897988 heartbeat IPC: 1.20708 cumulative IPC: 1.25968 (Simulation time: 1 hr 0 min 32 sec) 
Heartbeat CPU 0 instructions: 1040000002 cycles: 717221074 heartbeat IPC: 1.20148 cumulative IPC: 1.25895 (Simulation time: 1 hr 1 min 9 sec) 
Heartbeat CPU 0 instructions: 1050000001 cycles: 725612249 heartbeat IPC: 1.19173 cumulative IPC: 1.25812 (Simulation time: 1 hr 1 min 46 sec) 
Heartbeat CPU 0 instructions: 1060000002 cycles: 733983527 heartbeat IPC: 1.19456 cumulative IPC: 1.25734 (Simulation time: 1 hr 2 min 23 sec) 
Heartbeat CPU 0 instructions: 1070000000 cycles: 742360808 heartbeat IPC: 1.1937 cumulative IPC: 1.25657 (Simulation time: 1 hr 3 min 0 sec) 
Heartbeat CPU 0 instructions: 1080000000 cycles: 750728337 heartbeat IPC: 1.1951 cumulative IPC: 1.25584 (Simulation time: 1 hr 3 min 37 sec) 
Heartbeat CPU 0 instructions: 1090000000 cycles: 759148839 heartbeat IPC: 1.18758 cumulative IPC: 1.25503 (Simulation time: 1 hr 4 min 14 sec) 
Heartbeat CPU 0 instructions: 1100000000 cycles: 767547457 heartbeat IPC: 1.19067 cumulative IPC: 1.25427 (Simulation time: 1 hr 4 min 51 sec) 
Heartbeat CPU 0 instructions: 1110000002 cycles: 775884226 heartbeat IPC: 1.19951 cumulative IPC: 1.25364 (Simulation time: 1 hr 5 min 28 sec) 
Heartbeat CPU 0 instructions: 1120000003 cycles: 784144784 heartbeat IPC: 1.21057 cumulative IPC: 1.25316 (Simulation time: 1 hr 6 min 5 sec) 
Heartbeat CPU 0 instructions: 1130000002 cycles: 792106358 heartbeat IPC: 1.25603 cumulative IPC: 1.25319 (Simulation time: 1 hr 6 min 41 sec) 
Heartbeat CPU 0 instructions: 1140000000 cycles: 800047353 heartbeat IPC: 1.25929 cumulative IPC: 1.25325 (Simulation time: 1 hr 7 min 17 sec) 
Heartbeat CPU 0 instructions: 1150000001 cycles: 808000088 heartbeat IPC: 1.25743 cumulative IPC: 1.2533 (Simulation time: 1 hr 7 min 53 sec) 
Heartbeat CPU 0 instructions: 1160000000 cycles: 815942465 heartbeat IPC: 1.25907 cumulative IPC: 1.25336 (Simulation time: 1 hr 8 min 28 sec) 
Heartbeat CPU 0 instructions: 1170000001 cycles: 824000891 heartbeat IPC: 1.24094 cumulative IPC: 1.25323 (Simulation time: 1 hr 9 min 4 sec) 
Heartbeat CPU 0 instructions: 1180000002 cycles: 832185549 heartbeat IPC: 1.2218 cumulative IPC: 1.2529 (Simulation time: 1 hr 9 min 41 sec) 
Heartbeat CPU 0 instructions: 1190000001 cycles: 840261586 heartbeat IPC: 1.23823 cumulative IPC: 1.25275 (Simulation time: 1 hr 10 min 17 sec) 
Heartbeat CPU 0 instructions: 1200000001 cycles: 848350965 heartbeat IPC: 1.23619 cumulative IPC: 1.25258 (Simulation time: 1 hr 10 min 54 sec) 
Finished CPU 0 instructions: 1000000000 cycles: 798350877 cumulative IPC: 1.25258 (Simulation time: 1 hr 10 min 54 sec) 

ChampSim completed all CPUs

Region of Interest Statistics

CPU 0 cumulative IPC: 1.25258 instructions: 1000000000 cycles: 798350877
cpu0_DTLB TOTAL     ACCESS:  227782598  HIT:  225560200  MISS:    2222398
cpu0_DTLB LOAD      ACCESS:  175943124  HIT:  173737220  MISS:    2205904
cpu0_DTLB RFO       ACCESS:   51839474  HIT:   51822980  MISS:      16494
cpu0_DTLB PREFETCH  ACCESS:          0  HIT:          0  MISS:          0
cpu0_DTLB WRITEBACK ACCESS:          0  HIT:          0  MISS:          0
cpu0_DTLB TRANSLATION ACCESS:          0  HIT:          0  MISS:          0
cpu0_DTLB PREFETCH  REQUESTED:          0  ISSUED:          0  USEFUL:          0  USELESS:          0
cpu0_DTLB AVERAGE MISS LATENCY: 11.7375 cycles
cpu0_ITLB TOTAL     ACCESS:  107763493  HIT:  107763493  MISS:          0
cpu0_ITLB LOAD      ACCESS:  107763493  HIT:  107763493  MISS:          0
cpu0_ITLB RFO       ACCESS:          0  HIT:          0  MISS:          0
cpu0_ITLB PREFETCH  ACCESS:          0  HIT:          0  MISS:          0
cpu0_ITLB WRITEBACK ACCESS:          0  HIT:          0  MISS:          0
cpu0_ITLB TRANSLATION ACCESS:          0  HIT:          0  MISS:          0
cpu0_ITLB PREFETCH  REQUESTED:          0  ISSUED:          0  USEFUL:          0  USELESS:          0
cpu0_ITLB AVERAGE MISS LATENCY: -nan cycles
cpu0_L1I TOTAL     ACCESS:      21977  HIT:      21975  MISS:          2
cpu0_L1I LOAD      ACCESS:      21977  HIT:      21975  MISS:          2
cpu0_L1I RFO       ACCESS:          0  HIT:          0  MISS:          0
cpu0_L1I PREFETCH  ACCESS:          0  HIT:          0  MISS:          0
cpu0_L1I WRITEBACK ACCESS:          0  HIT:          0  MISS:          0
cpu0_L1I TRANSLATION ACCESS:          0  HIT:          0  MISS:          0
cpu0_L1I PREFETCH  REQUESTED:          0  ISSUED:          0  USEFUL:          0  USELESS:          0
cpu0_L1I AVERAGE MISS LATENCY: 194 cycles
cpu0_STLB TOTAL     ACCESS:    2222398  HIT:    2214759  MISS:       7639
cpu0_STLB LOAD      ACCESS:    2205904  HIT:    2198265  MISS:       7639
cpu0_STLB RFO       ACCESS:      16494  HIT:      16494  MISS:          0
cpu0_STLB PREFETCH  ACCESS:          0  HIT:          0  MISS:          0
cpu0_STLB WRITEBACK ACCESS:          0  HIT:          0  MISS:          0
cpu0_STLB TRANSLATION ACCESS:          0  HIT:          0  MISS:          0
cpu0_STLB PREFETCH  REQUESTED:          0  ISSUED:          0  USEFUL:          0  USELESS:          0
cpu0_STLB AVERAGE MISS LATENCY: 214.339 cycles
cpu0_L1D TOTAL     ACCESS:  321247281  HIT:  317330237  MISS:    3917044
cpu0_L1D LOAD      ACCESS:  210622158  HIT:  206714948  MISS:    3907210
cpu0_L1D RFO       ACCESS:  110617489  HIT:  110611253  MISS:       6236
cpu0_L1D PREFETCH  ACCESS:          0  HIT:          0  MISS:          0
cpu0_L1D WRITEBACK ACCESS:          0  HIT:          0  MISS:          0
cpu0_L1D TRANSLATION ACCESS:       7634  HIT:       4036  MISS:       3598
cpu0_L1D PREFETCH  REQUESTED:          0  ISSUED:          0  USEFUL:          0  USELESS:          0
cpu0_L1D AVERAGE MISS LATENCY: 11.695 cycles
cpu0_L2C TOTAL     ACCESS:   13551364  HIT:   13340979  MISS:     210385
cpu0_L2C LOAD      ACCESS:    3907202  HIT:    3884860  MISS:      22342
cpu0_L2C RFO       ACCESS:       6235  HIT:       5720  MISS:        515
cpu0_L2C PREFETCH  ACCESS:    8294338  HIT:    8106942  MISS:     187396
cpu0_L2C WRITEBACK ACCESS:    1339991  HIT:    1339967  MISS:         24
cpu0_L2C TRANSLATION ACCESS:       3598  HIT:       3490  MISS:        108
cpu0_L2C PREFETCH  REQUESTED:    8864622  ISSUED:    8826982  USEFUL:     178118  USELESS:       9182
cpu0_L2C AVERAGE MISS LATENCY: 43.5725 cycles
LLC TOTAL     ACCESS:     749633  HIT:     531375  MISS:     218258
LLC LOAD      ACCESS:      22339  HIT:       8659  MISS:      13680
LLC RFO       ACCESS:        515  HIT:        486  MISS:         29
LLC PREFETCH  ACCESS:     719490  HIT:     517450  MISS:     202040
LLC WRITEBACK ACCESS:       7181  HIT:       4723  MISS:       2458
LLC TRANSLATION ACCESS:        108  HIT:         57  MISS:         51
LLC PREFETCH  REQUESTED:          0  ISSUED:          0  USEFUL:          0  USELESS:          0
LLC AVERAGE MISS LATENCY: 106.223 cycles

DRAM Statistics
 CHANNEL 0
 RQ ROW_BUFFER_HIT:     132977  ROW_BUFFER_MISS:      82823
 DBUS AVG_CONGESTED_CYCLE:    3.95367
 WQ ROW_BUFFER_HIT:         89  ROW_BUFFER_MISS:       4696  FULL:          0


CPU 0 Branch Prediction Accuracy: 94.2299% MPKI: 5.58664 Average ROB Occupancy at Mispredict: 134.564
Branch type MPKI
BRANCH_DIRECT_JUMP: 2e-06
BRANCH_INDIRECT: 0
BRANCH_CONDITIONAL: 5.58664
BRANCH_DIRECT_CALL: 1e-06
BRANCH_INDIRECT_CALL: 0
BRANCH_RETURN: 1e-06

***************** Done with 644.nab_s-5853B.champsimtrace.xz using spp-dev-agg, on Mon Apr 18 17:46:11 CDT 2022 ******************
