Started running file 619.lbm_s-4268B.champsimtrace.xz at time Mon Apr 18 16:26:02 CDT 2022 with prefetcher spp-dev-agg

*** ChampSim Multicore Out-of-Order Simulator ***

Warmup Instructions: 200000000
Simulation Instructions: 1000000000
Number of CPUs: 1
Off-chip DRAM Size: 4 GiB Channels: 1 Width: 64-bit Data Rate: 3200 MT/s

VirtualMemory physical capacity: 8588881920 num_ppages: 2096895
VirtualMemory page size: 4096 log2_page_size: 12

CPU 0 runs /home/faculty/p/pgratz/dpc3_traces/619.lbm_s-4268B.champsimtrace.xz
CPU 0 Bimodal branch predictor
Basic BTB sets: 1024 ways: 8 indirect buffer size: 4096 RAS size: 64
SPP-DEV original prefetcher
Heartbeat CPU 0 instructions: 10000001 cycles: 2591953 heartbeat IPC: 3.85809 cumulative IPC: 3.85809 (Simulation time: 0 hr 0 min 36 sec) 
Heartbeat CPU 0 instructions: 20000002 cycles: 5179305 heartbeat IPC: 3.86496 cumulative IPC: 3.86152 (Simulation time: 0 hr 1 min 11 sec) 
Heartbeat CPU 0 instructions: 30000003 cycles: 7769474 heartbeat IPC: 3.86075 cumulative IPC: 3.86127 (Simulation time: 0 hr 1 min 47 sec) 
Heartbeat CPU 0 instructions: 40000000 cycles: 10357768 heartbeat IPC: 3.86355 cumulative IPC: 3.86184 (Simulation time: 0 hr 2 min 23 sec) 
Heartbeat CPU 0 instructions: 50000003 cycles: 12946284 heartbeat IPC: 3.86322 cumulative IPC: 3.86211 (Simulation time: 0 hr 2 min 58 sec) 
Heartbeat CPU 0 instructions: 60000000 cycles: 15538844 heartbeat IPC: 3.85719 cumulative IPC: 3.86129 (Simulation time: 0 hr 3 min 34 sec) 
Heartbeat CPU 0 instructions: 70000003 cycles: 18129006 heartbeat IPC: 3.86076 cumulative IPC: 3.86122 (Simulation time: 0 hr 4 min 10 sec) 
Heartbeat CPU 0 instructions: 80000000 cycles: 20718763 heartbeat IPC: 3.86137 cumulative IPC: 3.86123 (Simulation time: 0 hr 4 min 46 sec) 
Heartbeat CPU 0 instructions: 90000004 cycles: 23312617 heartbeat IPC: 3.85527 cumulative IPC: 3.86057 (Simulation time: 0 hr 5 min 22 sec) 
Heartbeat CPU 0 instructions: 100000001 cycles: 25905656 heartbeat IPC: 3.85648 cumulative IPC: 3.86016 (Simulation time: 0 hr 5 min 56 sec) 
Heartbeat CPU 0 instructions: 110000003 cycles: 28503015 heartbeat IPC: 3.85007 cumulative IPC: 3.85924 (Simulation time: 0 hr 6 min 31 sec) 
Heartbeat CPU 0 instructions: 120000003 cycles: 31102414 heartbeat IPC: 3.84704 cumulative IPC: 3.85822 (Simulation time: 0 hr 7 min 6 sec) 
Heartbeat CPU 0 instructions: 130000003 cycles: 33693846 heartbeat IPC: 3.85887 cumulative IPC: 3.85827 (Simulation time: 0 hr 7 min 40 sec) 
Heartbeat CPU 0 instructions: 140000000 cycles: 36291231 heartbeat IPC: 3.85002 cumulative IPC: 3.85768 (Simulation time: 0 hr 8 min 15 sec) 
Heartbeat CPU 0 instructions: 150000001 cycles: 38890304 heartbeat IPC: 3.84753 cumulative IPC: 3.857 (Simulation time: 0 hr 8 min 50 sec) 
Heartbeat CPU 0 instructions: 160000003 cycles: 41491955 heartbeat IPC: 3.84371 cumulative IPC: 3.85617 (Simulation time: 0 hr 9 min 25 sec) 
Heartbeat CPU 0 instructions: 170000001 cycles: 44089811 heartbeat IPC: 3.84933 cumulative IPC: 3.85577 (Simulation time: 0 hr 10 min 0 sec) 
Heartbeat CPU 0 instructions: 180000002 cycles: 46691657 heartbeat IPC: 3.84343 cumulative IPC: 3.85508 (Simulation time: 0 hr 10 min 35 sec) 
Heartbeat CPU 0 instructions: 190000004 cycles: 49293706 heartbeat IPC: 3.84313 cumulative IPC: 3.85445 (Simulation time: 0 hr 11 min 11 sec) 
Heartbeat CPU 0 instructions: 200000001 cycles: 51890570 heartbeat IPC: 3.8508 cumulative IPC: 3.85426 (Simulation time: 0 hr 11 min 46 sec) 

Warmup complete CPU 0 instructions: 200000001 cycles: 51890570 (Simulation time: 0 hr 11 min 46 sec) 

Heartbeat CPU 0 instructions: 210000001 cycles: 99931289 heartbeat IPC: 0.208157 cumulative IPC: 0.208157 (Simulation time: 0 hr 15 min 50 sec) 
Heartbeat CPU 0 instructions: 220000002 cycles: 147851410 heartbeat IPC: 0.208681 cumulative IPC: 0.208418 (Simulation time: 0 hr 19 min 53 sec) 
Heartbeat CPU 0 instructions: 230000002 cycles: 195147059 heartbeat IPC: 0.211436 cumulative IPC: 0.209415 (Simulation time: 0 hr 24 min 0 sec) 
Heartbeat CPU 0 instructions: 240000002 cycles: 242666413 heartbeat IPC: 0.210441 cumulative IPC: 0.20967 (Simulation time: 0 hr 28 min 12 sec) 
Heartbeat CPU 0 instructions: 250000003 cycles: 288973384 heartbeat IPC: 0.21595 cumulative IPC: 0.210897 (Simulation time: 0 hr 32 min 13 sec) 
Heartbeat CPU 0 instructions: 260000000 cycles: 335477403 heartbeat IPC: 0.215035 cumulative IPC: 0.211575 (Simulation time: 0 hr 36 min 19 sec) 
Heartbeat CPU 0 instructions: 270000003 cycles: 381817155 heartbeat IPC: 0.215798 cumulative IPC: 0.212168 (Simulation time: 0 hr 40 min 25 sec) 
Heartbeat CPU 0 instructions: 280000001 cycles: 427403873 heartbeat IPC: 0.219362 cumulative IPC: 0.213042 (Simulation time: 0 hr 44 min 22 sec) 
Heartbeat CPU 0 instructions: 290000001 cycles: 473719094 heartbeat IPC: 0.215912 cumulative IPC: 0.213357 (Simulation time: 0 hr 48 min 19 sec) 
Heartbeat CPU 0 instructions: 300000001 cycles: 520691806 heartbeat IPC: 0.21289 cumulative IPC: 0.21331 (Simulation time: 0 hr 52 min 17 sec) 
Heartbeat CPU 0 instructions: 310000000 cycles: 567524397 heartbeat IPC: 0.213527 cumulative IPC: 0.21333 (Simulation time: 0 hr 56 min 14 sec) 
Heartbeat CPU 0 instructions: 320000001 cycles: 614059196 heartbeat IPC: 0.214893 cumulative IPC: 0.213459 (Simulation time: 1 hr 0 min 10 sec) 
Heartbeat CPU 0 instructions: 330000002 cycles: 660287443 heartbeat IPC: 0.216318 cumulative IPC: 0.213676 (Simulation time: 1 hr 4 min 6 sec) 
Heartbeat CPU 0 instructions: 340000003 cycles: 705774263 heartbeat IPC: 0.219844 cumulative IPC: 0.214105 (Simulation time: 1 hr 7 min 56 sec) 
Heartbeat CPU 0 instructions: 350000002 cycles: 750840707 heartbeat IPC: 0.221895 cumulative IPC: 0.214608 (Simulation time: 1 hr 11 min 42 sec) 
Heartbeat CPU 0 instructions: 360000002 cycles: 797012388 heartbeat IPC: 0.216583 cumulative IPC: 0.21473 (Simulation time: 1 hr 15 min 39 sec) 
Heartbeat CPU 0 instructions: 370000001 cycles: 842085369 heartbeat IPC: 0.221862 cumulative IPC: 0.215137 (Simulation time: 1 hr 19 min 31 sec) 
Heartbeat CPU 0 instructions: 380000000 cycles: 887621349 heartbeat IPC: 0.219607 cumulative IPC: 0.21538 (Simulation time: 1 hr 23 min 24 sec) 
Heartbeat CPU 0 instructions: 390000000 cycles: 933285116 heartbeat IPC: 0.218992 cumulative IPC: 0.215567 (Simulation time: 1 hr 27 min 6 sec) 
Heartbeat CPU 0 instructions: 400000000 cycles: 978029652 heartbeat IPC: 0.223491 cumulative IPC: 0.21595 (Simulation time: 1 hr 30 min 44 sec) 
Heartbeat CPU 0 instructions: 410000003 cycles: 1023752298 heartbeat IPC: 0.21871 cumulative IPC: 0.21608 (Simulation time: 1 hr 34 min 26 sec) 
Heartbeat CPU 0 instructions: 420000000 cycles: 1069528785 heartbeat IPC: 0.218453 cumulative IPC: 0.216187 (Simulation time: 1 hr 38 min 3 sec) 
Heartbeat CPU 0 instructions: 430000000 cycles: 1116625382 heartbeat IPC: 0.21233 cumulative IPC: 0.216016 (Simulation time: 1 hr 41 min 52 sec) 
Heartbeat CPU 0 instructions: 440000002 cycles: 1163225009 heartbeat IPC: 0.214594 cumulative IPC: 0.215957 (Simulation time: 1 hr 45 min 44 sec) 
Heartbeat CPU 0 instructions: 450000001 cycles: 1208629957 heartbeat IPC: 0.22024 cumulative IPC: 0.216125 (Simulation time: 1 hr 49 min 27 sec) 
Heartbeat CPU 0 instructions: 460000002 cycles: 1252306688 heartbeat IPC: 0.228955 cumulative IPC: 0.216592 (Simulation time: 1 hr 53 min 1 sec) 
Heartbeat CPU 0 instructions: 470000004 cycles: 1295903898 heartbeat IPC: 0.229373 cumulative IPC: 0.217039 (Simulation time: 1 hr 56 min 34 sec) 
Heartbeat CPU 0 instructions: 480000000 cycles: 1337916171 heartbeat IPC: 0.238026 cumulative IPC: 0.217725 (Simulation time: 2 hr 0 min 2 sec) 
Heartbeat CPU 0 instructions: 490000002 cycles: 1377588593 heartbeat IPC: 0.252064 cumulative IPC: 0.218753 (Simulation time: 2 hr 3 min 22 sec) 
Heartbeat CPU 0 instructions: 500000000 cycles: 1415324640 heartbeat IPC: 0.264999 cumulative IPC: 0.220033 (Simulation time: 2 hr 6 min 29 sec) 
Heartbeat CPU 0 instructions: 510000003 cycles: 1451697943 heartbeat IPC: 0.274927 cumulative IPC: 0.221459 (Simulation time: 2 hr 9 min 22 sec) 
Heartbeat CPU 0 instructions: 520000003 cycles: 1485808245 heartbeat IPC: 0.293167 cumulative IPC: 0.223165 (Simulation time: 2 hr 12 min 3 sec) 
Heartbeat CPU 0 instructions: 530000003 cycles: 1518271703 heartbeat IPC: 0.308039 cumulative IPC: 0.225044 (Simulation time: 2 hr 14 min 35 sec) 
Heartbeat CPU 0 instructions: 540000001 cycles: 1549498579 heartbeat IPC: 0.320237 cumulative IPC: 0.227029 (Simulation time: 2 hr 17 min 7 sec) 
Heartbeat CPU 0 instructions: 550000004 cycles: 1578859353 heartbeat IPC: 0.340591 cumulative IPC: 0.229212 (Simulation time: 2 hr 19 min 25 sec) 
Heartbeat CPU 0 instructions: 560000002 cycles: 1608236218 heartbeat IPC: 0.340404 cumulative IPC: 0.231311 (Simulation time: 2 hr 21 min 38 sec) 
Heartbeat CPU 0 instructions: 570000000 cycles: 1635651637 heartbeat IPC: 0.364758 cumulative IPC: 0.233621 (Simulation time: 2 hr 23 min 39 sec) 
Heartbeat CPU 0 instructions: 580000000 cycles: 1662945720 heartbeat IPC: 0.36638 cumulative IPC: 0.23587 (Simulation time: 2 hr 25 min 40 sec) 
Heartbeat CPU 0 instructions: 590000002 cycles: 1689032505 heartbeat IPC: 0.383336 cumulative IPC: 0.23822 (Simulation time: 2 hr 27 min 36 sec) 
Heartbeat CPU 0 instructions: 600000004 cycles: 1714505542 heartbeat IPC: 0.392572 cumulative IPC: 0.240585 (Simulation time: 2 hr 29 min 32 sec) 
Heartbeat CPU 0 instructions: 610000003 cycles: 1738931442 heartbeat IPC: 0.409401 cumulative IPC: 0.243029 (Simulation time: 2 hr 31 min 25 sec) 
Heartbeat CPU 0 instructions: 620000003 cycles: 1763450691 heartbeat IPC: 0.407843 cumulative IPC: 0.24539 (Simulation time: 2 hr 33 min 17 sec) 
Heartbeat CPU 0 instructions: 630000004 cycles: 1787574976 heartbeat IPC: 0.41452 cumulative IPC: 0.247741 (Simulation time: 2 hr 35 min 9 sec) 
Heartbeat CPU 0 instructions: 640000004 cycles: 1811023887 heartbeat IPC: 0.426459 cumulative IPC: 0.250123 (Simulation time: 2 hr 36 min 58 sec) 
Heartbeat CPU 0 instructions: 650000001 cycles: 1834497403 heartbeat IPC: 0.426012 cumulative IPC: 0.252439 (Simulation time: 2 hr 38 min 46 sec) 
Heartbeat CPU 0 instructions: 660000002 cycles: 1857200904 heartbeat IPC: 0.440461 cumulative IPC: 0.254804 (Simulation time: 2 hr 40 min 31 sec) 
Heartbeat CPU 0 instructions: 670000001 cycles: 1880098294 heartbeat IPC: 0.436731 cumulative IPC: 0.257082 (Simulation time: 2 hr 42 min 17 sec) 
Heartbeat CPU 0 instructions: 680000000 cycles: 1902719862 heartbeat IPC: 0.442056 cumulative IPC: 0.259343 (Simulation time: 2 hr 44 min 2 sec) 
Heartbeat CPU 0 instructions: 690000001 cycles: 1925347834 heartbeat IPC: 0.441931 cumulative IPC: 0.261549 (Simulation time: 2 hr 45 min 44 sec) 
Heartbeat CPU 0 instructions: 700000000 cycles: 1948045089 heartbeat IPC: 0.440582 cumulative IPC: 0.263692 (Simulation time: 2 hr 47 min 26 sec) 
Heartbeat CPU 0 instructions: 710000004 cycles: 1970447472 heartbeat IPC: 0.446381 cumulative IPC: 0.265825 (Simulation time: 2 hr 49 min 7 sec) 
Heartbeat CPU 0 instructions: 720000003 cycles: 1992491270 heartbeat IPC: 0.453642 cumulative IPC: 0.267958 (Simulation time: 2 hr 50 min 45 sec) 
Heartbeat CPU 0 instructions: 730000000 cycles: 2014760737 heartbeat IPC: 0.449045 cumulative IPC: 0.270013 (Simulation time: 2 hr 52 min 25 sec) 
Heartbeat CPU 0 instructions: 740000003 cycles: 2036761711 heartbeat IPC: 0.454525 cumulative IPC: 0.272058 (Simulation time: 2 hr 54 min 6 sec) 
Heartbeat CPU 0 instructions: 750000004 cycles: 2058959463 heartbeat IPC: 0.450496 cumulative IPC: 0.274031 (Simulation time: 2 hr 55 min 49 sec) 
Heartbeat CPU 0 instructions: 760000001 cycles: 2080912611 heartbeat IPC: 0.455515 cumulative IPC: 0.275995 (Simulation time: 2 hr 57 min 26 sec) 
Heartbeat CPU 0 instructions: 770000004 cycles: 2102958051 heartbeat IPC: 0.453609 cumulative IPC: 0.277904 (Simulation time: 2 hr 59 min 6 sec) 
Heartbeat CPU 0 instructions: 780000003 cycles: 2124782657 heartbeat IPC: 0.458198 cumulative IPC: 0.279802 (Simulation time: 3 hr 0 min 47 sec) 
Heartbeat CPU 0 instructions: 790000001 cycles: 2146839320 heartbeat IPC: 0.453378 cumulative IPC: 0.28163 (Simulation time: 3 hr 2 min 28 sec) 
Heartbeat CPU 0 instructions: 800000003 cycles: 2168537822 heartbeat IPC: 0.460861 cumulative IPC: 0.283467 (Simulation time: 3 hr 4 min 4 sec) 
Heartbeat CPU 0 instructions: 810000002 cycles: 2190617710 heartbeat IPC: 0.452901 cumulative IPC: 0.285216 (Simulation time: 3 hr 5 min 42 sec) 
Heartbeat CPU 0 instructions: 820000003 cycles: 2212714657 heartbeat IPC: 0.452551 cumulative IPC: 0.286928 (Simulation time: 3 hr 7 min 20 sec) 
Heartbeat CPU 0 instructions: 830000002 cycles: 2234437553 heartbeat IPC: 0.460344 cumulative IPC: 0.288654 (Simulation time: 3 hr 8 min 57 sec) 
Heartbeat CPU 0 instructions: 840000001 cycles: 2256476798 heartbeat IPC: 0.453736 cumulative IPC: 0.290304 (Simulation time: 3 hr 10 min 37 sec) 
Heartbeat CPU 0 instructions: 850000000 cycles: 2278244165 heartbeat IPC: 0.459403 cumulative IPC: 0.291957 (Simulation time: 3 hr 12 min 14 sec) 
Heartbeat CPU 0 instructions: 860000004 cycles: 2300240859 heartbeat IPC: 0.454614 cumulative IPC: 0.293549 (Simulation time: 3 hr 13 min 52 sec) 
Heartbeat CPU 0 instructions: 870000001 cycles: 2321948103 heartbeat IPC: 0.460676 cumulative IPC: 0.295147 (Simulation time: 3 hr 15 min 28 sec) 
Heartbeat CPU 0 instructions: 880000004 cycles: 2343999673 heartbeat IPC: 0.453483 cumulative IPC: 0.29667 (Simulation time: 3 hr 17 min 7 sec) 
Heartbeat CPU 0 instructions: 890000001 cycles: 2365705695 heartbeat IPC: 0.460701 cumulative IPC: 0.298209 (Simulation time: 3 hr 18 min 43 sec) 
Heartbeat CPU 0 instructions: 900000002 cycles: 2387796534 heartbeat IPC: 0.452676 cumulative IPC: 0.29967 (Simulation time: 3 hr 20 min 21 sec) 
Heartbeat CPU 0 instructions: 910000004 cycles: 2409486332 heartbeat IPC: 0.461046 cumulative IPC: 0.301154 (Simulation time: 3 hr 21 min 58 sec) 
Heartbeat CPU 0 instructions: 920000003 cycles: 2431555135 heartbeat IPC: 0.453128 cumulative IPC: 0.302564 (Simulation time: 3 hr 23 min 30 sec) 
Heartbeat CPU 0 instructions: 930000000 cycles: 2453326929 heartbeat IPC: 0.45931 cumulative IPC: 0.303985 (Simulation time: 3 hr 24 min 59 sec) 
Heartbeat CPU 0 instructions: 940000002 cycles: 2476805027 heartbeat IPC: 0.425929 cumulative IPC: 0.305165 (Simulation time: 3 hr 26 min 33 sec) 
Heartbeat CPU 0 instructions: 950000000 cycles: 2541230679 heartbeat IPC: 0.155218 cumulative IPC: 0.301285 (Simulation time: 3 hr 32 min 11 sec) 
Heartbeat CPU 0 instructions: 960000001 cycles: 2591852506 heartbeat IPC: 0.197543 cumulative IPC: 0.299217 (Simulation time: 3 hr 36 min 32 sec) 
Heartbeat CPU 0 instructions: 970000002 cycles: 2614997371 heartbeat IPC: 0.432061 cumulative IPC: 0.300417 (Simulation time: 3 hr 38 min 5 sec) 
Heartbeat CPU 0 instructions: 980000004 cycles: 2636675110 heartbeat IPC: 0.461303 cumulative IPC: 0.301766 (Simulation time: 3 hr 39 min 34 sec) 
Heartbeat CPU 0 instructions: 990000000 cycles: 2658640383 heartbeat IPC: 0.455264 cumulative IPC: 0.303059 (Simulation time: 3 hr 41 min 6 sec) 
Heartbeat CPU 0 instructions: 1000000001 cycles: 2680431293 heartbeat IPC: 0.458907 cumulative IPC: 0.304351 (Simulation time: 3 hr 42 min 35 sec) 
Heartbeat CPU 0 instructions: 1010000001 cycles: 2702489593 heartbeat IPC: 0.453344 cumulative IPC: 0.305591 (Simulation time: 3 hr 44 min 6 sec) 
Heartbeat CPU 0 instructions: 1020000002 cycles: 2724161844 heartbeat IPC: 0.46142 cumulative IPC: 0.306855 (Simulation time: 3 hr 45 min 35 sec) 
Heartbeat CPU 0 instructions: 1030000004 cycles: 2746258442 heartbeat IPC: 0.452558 cumulative IPC: 0.30805 (Simulation time: 3 hr 47 min 6 sec) 
Heartbeat CPU 0 instructions: 1040000003 cycles: 2767992421 heartbeat IPC: 0.460109 cumulative IPC: 0.309267 (Simulation time: 3 hr 48 min 35 sec) 
Heartbeat CPU 0 instructions: 1050000000 cycles: 2790064754 heartbeat IPC: 0.453056 cumulative IPC: 0.310426 (Simulation time: 3 hr 50 min 6 sec) 
Heartbeat CPU 0 instructions: 1060000000 cycles: 2811826295 heartbeat IPC: 0.459526 cumulative IPC: 0.311601 (Simulation time: 3 hr 51 min 35 sec) 
Heartbeat CPU 0 instructions: 1070000004 cycles: 2833911051 heartbeat IPC: 0.452801 cumulative IPC: 0.312722 (Simulation time: 3 hr 53 min 6 sec) 
Heartbeat CPU 0 instructions: 1080000000 cycles: 2855623000 heartbeat IPC: 0.460576 cumulative IPC: 0.313867 (Simulation time: 3 hr 54 min 35 sec) 
Heartbeat CPU 0 instructions: 1090000000 cycles: 2877642470 heartbeat IPC: 0.454144 cumulative IPC: 0.31496 (Simulation time: 3 hr 56 min 6 sec) 
Heartbeat CPU 0 instructions: 1100000001 cycles: 2899769392 heartbeat IPC: 0.451938 cumulative IPC: 0.316025 (Simulation time: 3 hr 57 min 37 sec) 
Heartbeat CPU 0 instructions: 1110000002 cycles: 2921491238 heartbeat IPC: 0.460366 cumulative IPC: 0.317117 (Simulation time: 3 hr 59 min 6 sec) 
Heartbeat CPU 0 instructions: 1120000003 cycles: 2944034183 heartbeat IPC: 0.443598 cumulative IPC: 0.318103 (Simulation time: 4 hr 0 min 39 sec) 
Heartbeat CPU 0 instructions: 1130000001 cycles: 2967866692 heartbeat IPC: 0.419595 cumulative IPC: 0.318933 (Simulation time: 4 hr 2 min 18 sec) 
Heartbeat CPU 0 instructions: 1140000004 cycles: 2995049898 heartbeat IPC: 0.367874 cumulative IPC: 0.319385 (Simulation time: 4 hr 4 min 13 sec) 
Heartbeat CPU 0 instructions: 1150000003 cycles: 3025016909 heartbeat IPC: 0.3337 cumulative IPC: 0.319529 (Simulation time: 4 hr 6 min 23 sec) 
Heartbeat CPU 0 instructions: 1160000003 cycles: 3059831229 heartbeat IPC: 0.287238 cumulative IPC: 0.319155 (Simulation time: 4 hr 9 min 8 sec) 
Heartbeat CPU 0 instructions: 1170000004 cycles: 3102769903 heartbeat IPC: 0.23289 cumulative IPC: 0.317941 (Simulation time: 4 hr 12 min 54 sec) 
Heartbeat CPU 0 instructions: 1180000003 cycles: 3156586491 heartbeat IPC: 0.185816 cumulative IPC: 0.315651 (Simulation time: 4 hr 17 min 46 sec) 
Heartbeat CPU 0 instructions: 1190000003 cycles: 3213715909 heartbeat IPC: 0.175041 cumulative IPC: 0.31311 (Simulation time: 4 hr 23 min 1 sec) 
Heartbeat CPU 0 instructions: 1200000001 cycles: 3277273948 heartbeat IPC: 0.157336 cumulative IPC: 0.310041 (Simulation time: 4 hr 28 min 54 sec) 
Finished CPU 0 instructions: 1000000000 cycles: 3225383378 cumulative IPC: 0.310041 (Simulation time: 4 hr 28 min 54 sec) 

ChampSim completed all CPUs

Region of Interest Statistics

CPU 0 cumulative IPC: 0.310041 instructions: 1000000000 cycles: 3225383378
cpu0_DTLB TOTAL     ACCESS:  157123762  HIT:  156188979  MISS:     934783
cpu0_DTLB LOAD      ACCESS:   76609085  HIT:   76482083  MISS:     127002
cpu0_DTLB RFO       ACCESS:   80514677  HIT:   79706896  MISS:     807781
cpu0_DTLB PREFETCH  ACCESS:          0  HIT:          0  MISS:          0
cpu0_DTLB WRITEBACK ACCESS:          0  HIT:          0  MISS:          0
cpu0_DTLB TRANSLATION ACCESS:          0  HIT:          0  MISS:          0
cpu0_DTLB PREFETCH  REQUESTED:          0  ISSUED:          0  USEFUL:          0  USELESS:          0
cpu0_DTLB AVERAGE MISS LATENCY: 283.596 cycles
cpu0_ITLB TOTAL     ACCESS:   10586969  HIT:   10586968  MISS:          1
cpu0_ITLB LOAD      ACCESS:   10586969  HIT:   10586968  MISS:          1
cpu0_ITLB RFO       ACCESS:          0  HIT:          0  MISS:          0
cpu0_ITLB PREFETCH  ACCESS:          0  HIT:          0  MISS:          0
cpu0_ITLB WRITEBACK ACCESS:          0  HIT:          0  MISS:          0
cpu0_ITLB TRANSLATION ACCESS:          0  HIT:          0  MISS:          0
cpu0_ITLB PREFETCH  REQUESTED:          0  ISSUED:          0  USEFUL:          0  USELESS:          0
cpu0_ITLB AVERAGE MISS LATENCY: 2894 cycles
cpu0_L1I TOTAL     ACCESS:   20282716  HIT:   20282713  MISS:          3
cpu0_L1I LOAD      ACCESS:   20282716  HIT:   20282713  MISS:          3
cpu0_L1I RFO       ACCESS:          0  HIT:          0  MISS:          0
cpu0_L1I PREFETCH  ACCESS:          0  HIT:          0  MISS:          0
cpu0_L1I WRITEBACK ACCESS:          0  HIT:          0  MISS:          0
cpu0_L1I TRANSLATION ACCESS:          0  HIT:          0  MISS:          0
cpu0_L1I PREFETCH  REQUESTED:          0  ISSUED:          0  USEFUL:          0  USELESS:          0
cpu0_L1I AVERAGE MISS LATENCY: 593.667 cycles
cpu0_STLB TOTAL     ACCESS:     934784  HIT:     677799  MISS:     256985
cpu0_STLB LOAD      ACCESS:     127003  HIT:         79  MISS:     126924
cpu0_STLB RFO       ACCESS:     807781  HIT:     677720  MISS:     130061
cpu0_STLB PREFETCH  ACCESS:          0  HIT:          0  MISS:          0
cpu0_STLB WRITEBACK ACCESS:          0  HIT:          0  MISS:          0
cpu0_STLB TRANSLATION ACCESS:          0  HIT:          0  MISS:          0
cpu0_STLB PREFETCH  REQUESTED:          0  ISSUED:          0  USEFUL:          0  USELESS:          0
cpu0_STLB AVERAGE MISS LATENCY: 991.259 cycles
cpu0_L1D TOTAL     ACCESS:  211596821  HIT:  157983683  MISS:   53613138
cpu0_L1D LOAD      ACCESS:   54858890  HIT:   46735129  MISS:    8123761
cpu0_L1D RFO       ACCESS:  156481607  HIT:  110992299  MISS:   45489308
cpu0_L1D PREFETCH  ACCESS:          0  HIT:          0  MISS:          0
cpu0_L1D WRITEBACK ACCESS:          0  HIT:          0  MISS:          0
cpu0_L1D TRANSLATION ACCESS:     256324  HIT:     256255  MISS:         69
cpu0_L1D PREFETCH  REQUESTED:          0  ISSUED:          0  USEFUL:          0  USELESS:          0
cpu0_L1D AVERAGE MISS LATENCY: 920.233 cycles
cpu0_L2C TOTAL     ACCESS:  105598070  HIT:   72338370  MISS:   33259700
cpu0_L2C LOAD      ACCESS:    8123764  HIT:    6340115  MISS:    1783649
cpu0_L2C RFO       ACCESS:   45489300  HIT:   20354608  MISS:   25134692
cpu0_L2C PREFETCH  ACCESS:    6495623  HIT:     155439  MISS:    6340184
cpu0_L2C WRITEBACK ACCESS:   45489314  HIT:   45488208  MISS:       1106
cpu0_L2C TRANSLATION ACCESS:         69  HIT:          0  MISS:         69
cpu0_L2C PREFETCH  REQUESTED:   44361382  ISSUED:   29595623  USEFUL:    7753189  USELESS:        272
cpu0_L2C AVERAGE MISS LATENCY: 1495.59 cycles
LLC TOTAL     ACCESS:   64937400  HIT:   32442301  MISS:   32495099
LLC LOAD      ACCESS:     370372  HIT:      47728  MISS:     322644
LLC RFO       ACCESS:   25132911  HIT:     762930  MISS:   24369981
LLC PREFETCH  ACCESS:   14298237  HIT:    6496729  MISS:    7801508
LLC WRITEBACK ACCESS:   25135811  HIT:   25134914  MISS:        897
LLC TRANSLATION ACCESS:         69  HIT:          0  MISS:         69
LLC PREFETCH  REQUESTED:          0  ISSUED:          0  USEFUL:          0  USELESS:          0
LLC AVERAGE MISS LATENCY: 1918.26 cycles

DRAM Statistics
 CHANNEL 0
 RQ ROW_BUFFER_HIT:     791973  ROW_BUFFER_MISS:   31702229
 DBUS AVG_CONGESTED_CYCLE:    4.00413
 WQ ROW_BUFFER_HIT:     462147  ROW_BUFFER_MISS:   23908781  FULL:          0


CPU 0 Branch Prediction Accuracy: 97.8067% MPKI: 0.30673 Average ROB Occupancy at Mispredict: 257.577
Branch type MPKI
BRANCH_DIRECT_JUMP: 3e-06
BRANCH_INDIRECT: 0
BRANCH_CONDITIONAL: 0.306723
BRANCH_DIRECT_CALL: 2e-06
BRANCH_INDIRECT_CALL: 0
BRANCH_RETURN: 2e-06

***************** Done with 619.lbm_s-4268B.champsimtrace.xz using spp-dev-agg, on Mon Apr 18 20:54:56 CDT 2022 ******************
