Started running file 654.roms_s-842B.champsimtrace.xz at time Mon Apr 18 19:36:18 CDT 2022 with prefetcher spp-dev-agg

*** ChampSim Multicore Out-of-Order Simulator ***

Warmup Instructions: 200000000
Simulation Instructions: 1000000000
Number of CPUs: 1
Off-chip DRAM Size: 4 GiB Channels: 1 Width: 64-bit Data Rate: 3200 MT/s

VirtualMemory physical capacity: 8588881920 num_ppages: 2096895
VirtualMemory page size: 4096 log2_page_size: 12

CPU 0 runs /home/faculty/p/pgratz/dpc3_traces/654.roms_s-842B.champsimtrace.xz
CPU 0 Bimodal branch predictor
Basic BTB sets: 1024 ways: 8 indirect buffer size: 4096 RAS size: 64
SPP-DEV original prefetcher
Heartbeat CPU 0 instructions: 10000003 cycles: 2501441 heartbeat IPC: 3.9977 cumulative IPC: 3.9977 (Simulation time: 0 hr 0 min 25 sec) 
Heartbeat CPU 0 instructions: 20000003 cycles: 5003217 heartbeat IPC: 3.99716 cumulative IPC: 3.99743 (Simulation time: 0 hr 0 min 50 sec) 
Heartbeat CPU 0 instructions: 30000001 cycles: 7504023 heartbeat IPC: 3.99871 cumulative IPC: 3.99786 (Simulation time: 0 hr 1 min 14 sec) 
Heartbeat CPU 0 instructions: 40000001 cycles: 10005956 heartbeat IPC: 3.99691 cumulative IPC: 3.99762 (Simulation time: 0 hr 1 min 39 sec) 
Heartbeat CPU 0 instructions: 50000002 cycles: 12510308 heartbeat IPC: 3.99305 cumulative IPC: 3.9967 (Simulation time: 0 hr 2 min 5 sec) 
Heartbeat CPU 0 instructions: 60000000 cycles: 15011758 heartbeat IPC: 3.99768 cumulative IPC: 3.99687 (Simulation time: 0 hr 2 min 29 sec) 
Heartbeat CPU 0 instructions: 70000001 cycles: 17513045 heartbeat IPC: 3.99794 cumulative IPC: 3.99702 (Simulation time: 0 hr 2 min 54 sec) 
Heartbeat CPU 0 instructions: 80000003 cycles: 20014496 heartbeat IPC: 3.99768 cumulative IPC: 3.9971 (Simulation time: 0 hr 3 min 18 sec) 
Heartbeat CPU 0 instructions: 90000003 cycles: 22516268 heartbeat IPC: 3.99717 cumulative IPC: 3.99711 (Simulation time: 0 hr 3 min 45 sec) 
Heartbeat CPU 0 instructions: 100000002 cycles: 25016912 heartbeat IPC: 3.99897 cumulative IPC: 3.9973 (Simulation time: 0 hr 4 min 9 sec) 
Heartbeat CPU 0 instructions: 110000003 cycles: 27519168 heartbeat IPC: 3.99639 cumulative IPC: 3.99721 (Simulation time: 0 hr 4 min 36 sec) 
Heartbeat CPU 0 instructions: 120000003 cycles: 30020135 heartbeat IPC: 3.99845 cumulative IPC: 3.99732 (Simulation time: 0 hr 5 min 3 sec) 
Heartbeat CPU 0 instructions: 130000002 cycles: 32520457 heartbeat IPC: 3.99948 cumulative IPC: 3.99748 (Simulation time: 0 hr 5 min 30 sec) 
Heartbeat CPU 0 instructions: 140000003 cycles: 35022390 heartbeat IPC: 3.99691 cumulative IPC: 3.99744 (Simulation time: 0 hr 5 min 55 sec) 
Heartbeat CPU 0 instructions: 150000002 cycles: 37524323 heartbeat IPC: 3.99691 cumulative IPC: 3.99741 (Simulation time: 0 hr 6 min 20 sec) 
Heartbeat CPU 0 instructions: 160000002 cycles: 40025129 heartbeat IPC: 3.99871 cumulative IPC: 3.99749 (Simulation time: 0 hr 6 min 44 sec) 
Heartbeat CPU 0 instructions: 170000002 cycles: 42526580 heartbeat IPC: 3.99768 cumulative IPC: 3.9975 (Simulation time: 0 hr 7 min 9 sec) 
Heartbeat CPU 0 instructions: 180000002 cycles: 45029158 heartbeat IPC: 3.99588 cumulative IPC: 3.99741 (Simulation time: 0 hr 7 min 34 sec) 
Heartbeat CPU 0 instructions: 190000003 cycles: 47531096 heartbeat IPC: 3.9969 cumulative IPC: 3.99738 (Simulation time: 0 hr 7 min 59 sec) 
Heartbeat CPU 0 instructions: 200000002 cycles: 50032545 heartbeat IPC: 3.99768 cumulative IPC: 3.9974 (Simulation time: 0 hr 8 min 23 sec) 

Warmup complete CPU 0 instructions: 200000002 cycles: 50032545 (Simulation time: 0 hr 8 min 23 sec) 

Heartbeat CPU 0 instructions: 210000000 cycles: 58321286 heartbeat IPC: 1.20646 cumulative IPC: 1.20646 (Simulation time: 0 hr 8 min 48 sec) 
Heartbeat CPU 0 instructions: 220000000 cycles: 66385477 heartbeat IPC: 1.24005 cumulative IPC: 1.22302 (Simulation time: 0 hr 9 min 15 sec) 
Heartbeat CPU 0 instructions: 230000001 cycles: 74698932 heartbeat IPC: 1.20287 cumulative IPC: 1.21623 (Simulation time: 0 hr 9 min 39 sec) 
Heartbeat CPU 0 instructions: 240000000 cycles: 82786258 heartbeat IPC: 1.2365 cumulative IPC: 1.22124 (Simulation time: 0 hr 10 min 5 sec) 
Heartbeat CPU 0 instructions: 250000001 cycles: 90901572 heartbeat IPC: 1.23224 cumulative IPC: 1.22342 (Simulation time: 0 hr 10 min 31 sec) 
Heartbeat CPU 0 instructions: 260000000 cycles: 99142555 heartbeat IPC: 1.21345 cumulative IPC: 1.22175 (Simulation time: 0 hr 10 min 57 sec) 
Heartbeat CPU 0 instructions: 270000003 cycles: 107254409 heartbeat IPC: 1.23276 cumulative IPC: 1.22331 (Simulation time: 0 hr 11 min 25 sec) 
Heartbeat CPU 0 instructions: 280000000 cycles: 115435685 heartbeat IPC: 1.2223 cumulative IPC: 1.22318 (Simulation time: 0 hr 11 min 51 sec) 
Heartbeat CPU 0 instructions: 290000000 cycles: 123752414 heartbeat IPC: 1.2024 cumulative IPC: 1.22084 (Simulation time: 0 hr 12 min 15 sec) 
Heartbeat CPU 0 instructions: 300000002 cycles: 131992228 heartbeat IPC: 1.21362 cumulative IPC: 1.22011 (Simulation time: 0 hr 12 min 41 sec) 
Heartbeat CPU 0 instructions: 310000000 cycles: 140333811 heartbeat IPC: 1.19881 cumulative IPC: 1.21814 (Simulation time: 0 hr 13 min 8 sec) 
Heartbeat CPU 0 instructions: 320000004 cycles: 148675311 heartbeat IPC: 1.19883 cumulative IPC: 1.21651 (Simulation time: 0 hr 13 min 35 sec) 
Heartbeat CPU 0 instructions: 330000000 cycles: 157017125 heartbeat IPC: 1.19878 cumulative IPC: 1.21513 (Simulation time: 0 hr 14 min 0 sec) 
Heartbeat CPU 0 instructions: 340000003 cycles: 165253849 heartbeat IPC: 1.21408 cumulative IPC: 1.21505 (Simulation time: 0 hr 14 min 25 sec) 
Heartbeat CPU 0 instructions: 350000000 cycles: 173566030 heartbeat IPC: 1.20305 cumulative IPC: 1.21425 (Simulation time: 0 hr 14 min 50 sec) 
Heartbeat CPU 0 instructions: 360000001 cycles: 181856211 heartbeat IPC: 1.20625 cumulative IPC: 1.21374 (Simulation time: 0 hr 15 min 15 sec) 
Heartbeat CPU 0 instructions: 370000000 cycles: 190116842 heartbeat IPC: 1.21056 cumulative IPC: 1.21355 (Simulation time: 0 hr 15 min 39 sec) 
Heartbeat CPU 0 instructions: 380000002 cycles: 197767500 heartbeat IPC: 1.30708 cumulative IPC: 1.2184 (Simulation time: 0 hr 16 min 10 sec) 
Heartbeat CPU 0 instructions: 390000004 cycles: 205845832 heartbeat IPC: 1.23788 cumulative IPC: 1.21941 (Simulation time: 0 hr 16 min 37 sec) 
Heartbeat CPU 0 instructions: 400000003 cycles: 214107363 heartbeat IPC: 1.21043 cumulative IPC: 1.21896 (Simulation time: 0 hr 17 min 2 sec) 
Heartbeat CPU 0 instructions: 410000002 cycles: 222398119 heartbeat IPC: 1.20616 cumulative IPC: 1.21834 (Simulation time: 0 hr 17 min 27 sec) 
Heartbeat CPU 0 instructions: 420000002 cycles: 230714050 heartbeat IPC: 1.20251 cumulative IPC: 1.21761 (Simulation time: 0 hr 17 min 51 sec) 
Heartbeat CPU 0 instructions: 430000004 cycles: 238544354 heartbeat IPC: 1.27709 cumulative IPC: 1.22008 (Simulation time: 0 hr 18 min 19 sec) 
Heartbeat CPU 0 instructions: 440000000 cycles: 246561857 heartbeat IPC: 1.24727 cumulative IPC: 1.22119 (Simulation time: 0 hr 18 min 46 sec) 
Heartbeat CPU 0 instructions: 450000002 cycles: 253817075 heartbeat IPC: 1.37832 cumulative IPC: 1.22679 (Simulation time: 0 hr 19 min 17 sec) 
Heartbeat CPU 0 instructions: 460000001 cycles: 262106563 heartbeat IPC: 1.20635 cumulative IPC: 1.22599 (Simulation time: 0 hr 19 min 43 sec) 
Heartbeat CPU 0 instructions: 470000003 cycles: 270372849 heartbeat IPC: 1.20973 cumulative IPC: 1.22538 (Simulation time: 0 hr 20 min 8 sec) 
Heartbeat CPU 0 instructions: 480000002 cycles: 278586931 heartbeat IPC: 1.21742 cumulative IPC: 1.22509 (Simulation time: 0 hr 20 min 34 sec) 
Heartbeat CPU 0 instructions: 490000000 cycles: 296487756 heartbeat IPC: 0.558633 cumulative IPC: 1.17668 (Simulation time: 0 hr 22 min 2 sec) 
Heartbeat CPU 0 instructions: 500000003 cycles: 302539224 heartbeat IPC: 1.65249 cumulative IPC: 1.18809 (Simulation time: 0 hr 22 min 52 sec) 
Heartbeat CPU 0 instructions: 510000000 cycles: 308590573 heartbeat IPC: 1.65252 cumulative IPC: 1.19896 (Simulation time: 0 hr 23 min 41 sec) 
Heartbeat CPU 0 instructions: 520000000 cycles: 314629602 heartbeat IPC: 1.6559 cumulative IPC: 1.20939 (Simulation time: 0 hr 24 min 29 sec) 
Heartbeat CPU 0 instructions: 530000000 cycles: 320676071 heartbeat IPC: 1.65386 cumulative IPC: 1.21932 (Simulation time: 0 hr 25 min 17 sec) 
Heartbeat CPU 0 instructions: 540000000 cycles: 326718888 heartbeat IPC: 1.65486 cumulative IPC: 1.22883 (Simulation time: 0 hr 26 min 6 sec) 
Heartbeat CPU 0 instructions: 550000002 cycles: 332760297 heartbeat IPC: 1.65524 cumulative IPC: 1.23794 (Simulation time: 0 hr 26 min 54 sec) 
Heartbeat CPU 0 instructions: 560000000 cycles: 340097644 heartbeat IPC: 1.36289 cumulative IPC: 1.2411 (Simulation time: 0 hr 27 min 46 sec) 
Heartbeat CPU 0 instructions: 570000003 cycles: 353843638 heartbeat IPC: 0.727485 cumulative IPC: 1.21786 (Simulation time: 0 hr 29 min 11 sec) 
Heartbeat CPU 0 instructions: 580000001 cycles: 359887475 heartbeat IPC: 1.65458 cumulative IPC: 1.22638 (Simulation time: 0 hr 30 min 3 sec) 
Heartbeat CPU 0 instructions: 590000003 cycles: 365932931 heartbeat IPC: 1.65414 cumulative IPC: 1.23457 (Simulation time: 0 hr 30 min 54 sec) 
Heartbeat CPU 0 instructions: 600000000 cycles: 371973114 heartbeat IPC: 1.65558 cumulative IPC: 1.24247 (Simulation time: 0 hr 31 min 43 sec) 
Heartbeat CPU 0 instructions: 610000002 cycles: 378023682 heartbeat IPC: 1.65274 cumulative IPC: 1.25003 (Simulation time: 0 hr 32 min 34 sec) 
Heartbeat CPU 0 instructions: 620000003 cycles: 384059651 heartbeat IPC: 1.65673 cumulative IPC: 1.25738 (Simulation time: 0 hr 33 min 24 sec) 
Heartbeat CPU 0 instructions: 630000000 cycles: 390107390 heartbeat IPC: 1.65351 cumulative IPC: 1.26443 (Simulation time: 0 hr 34 min 14 sec) 
Heartbeat CPU 0 instructions: 640000000 cycles: 405270927 heartbeat IPC: 0.659477 cumulative IPC: 1.2386 (Simulation time: 0 hr 35 min 44 sec) 
Heartbeat CPU 0 instructions: 650000004 cycles: 411313367 heartbeat IPC: 1.65496 cumulative IPC: 1.24557 (Simulation time: 0 hr 36 min 34 sec) 
Heartbeat CPU 0 instructions: 660000004 cycles: 417363524 heartbeat IPC: 1.65285 cumulative IPC: 1.25228 (Simulation time: 0 hr 37 min 24 sec) 
Heartbeat CPU 0 instructions: 670000001 cycles: 423401139 heartbeat IPC: 1.65628 cumulative IPC: 1.25881 (Simulation time: 0 hr 38 min 14 sec) 
Heartbeat CPU 0 instructions: 680000003 cycles: 429449976 heartbeat IPC: 1.65321 cumulative IPC: 1.2651 (Simulation time: 0 hr 39 min 4 sec) 
Heartbeat CPU 0 instructions: 690000003 cycles: 435491020 heartbeat IPC: 1.65534 cumulative IPC: 1.27121 (Simulation time: 0 hr 39 min 55 sec) 
Heartbeat CPU 0 instructions: 700000001 cycles: 441534394 heartbeat IPC: 1.6547 cumulative IPC: 1.27713 (Simulation time: 0 hr 40 min 48 sec) 
Heartbeat CPU 0 instructions: 710000002 cycles: 455393489 heartbeat IPC: 0.721548 cumulative IPC: 1.25814 (Simulation time: 0 hr 42 min 17 sec) 
Heartbeat CPU 0 instructions: 720000003 cycles: 463425729 heartbeat IPC: 1.24498 cumulative IPC: 1.25788 (Simulation time: 0 hr 43 min 22 sec) 
Heartbeat CPU 0 instructions: 730000003 cycles: 469470695 heartbeat IPC: 1.65427 cumulative IPC: 1.2636 (Simulation time: 0 hr 44 min 16 sec) 
Heartbeat CPU 0 instructions: 740000002 cycles: 475514064 heartbeat IPC: 1.65471 cumulative IPC: 1.26915 (Simulation time: 0 hr 45 min 9 sec) 
Heartbeat CPU 0 instructions: 750000004 cycles: 481557024 heartbeat IPC: 1.65482 cumulative IPC: 1.27455 (Simulation time: 0 hr 46 min 3 sec) 
Heartbeat CPU 0 instructions: 760000001 cycles: 487604829 heartbeat IPC: 1.65349 cumulative IPC: 1.27979 (Simulation time: 0 hr 46 min 57 sec) 
Heartbeat CPU 0 instructions: 770000001 cycles: 493641600 heartbeat IPC: 1.65651 cumulative IPC: 1.28492 (Simulation time: 0 hr 47 min 50 sec) 
Heartbeat CPU 0 instructions: 780000001 cycles: 499691314 heartbeat IPC: 1.65297 cumulative IPC: 1.28987 (Simulation time: 0 hr 48 min 44 sec) 
Heartbeat CPU 0 instructions: 790000003 cycles: 515421391 heartbeat IPC: 0.635725 cumulative IPC: 1.26776 (Simulation time: 0 hr 50 min 24 sec) 
Heartbeat CPU 0 instructions: 800000001 cycles: 521467294 heartbeat IPC: 1.65401 cumulative IPC: 1.27271 (Simulation time: 0 hr 51 min 18 sec) 
Heartbeat CPU 0 instructions: 810000001 cycles: 527514482 heartbeat IPC: 1.65366 cumulative IPC: 1.27754 (Simulation time: 0 hr 52 min 11 sec) 
Heartbeat CPU 0 instructions: 820000000 cycles: 533552742 heartbeat IPC: 1.65611 cumulative IPC: 1.28226 (Simulation time: 0 hr 53 min 5 sec) 
Heartbeat CPU 0 instructions: 830000002 cycles: 539603244 heartbeat IPC: 1.65276 cumulative IPC: 1.28684 (Simulation time: 0 hr 53 min 59 sec) 
Heartbeat CPU 0 instructions: 840000004 cycles: 545644664 heartbeat IPC: 1.65524 cumulative IPC: 1.29133 (Simulation time: 0 hr 54 min 52 sec) 
Heartbeat CPU 0 instructions: 850000004 cycles: 551686844 heartbeat IPC: 1.65503 cumulative IPC: 1.29571 (Simulation time: 0 hr 55 min 46 sec) 
Heartbeat CPU 0 instructions: 860000000 cycles: 567645605 heartbeat IPC: 0.626615 cumulative IPC: 1.27508 (Simulation time: 0 hr 57 min 24 sec) 
Heartbeat CPU 0 instructions: 870000001 cycles: 573686439 heartbeat IPC: 1.6554 cumulative IPC: 1.27947 (Simulation time: 0 hr 58 min 18 sec) 
Heartbeat CPU 0 instructions: 880000002 cycles: 579735377 heartbeat IPC: 1.65318 cumulative IPC: 1.28374 (Simulation time: 0 hr 59 min 11 sec) 
Heartbeat CPU 0 instructions: 890000004 cycles: 585774579 heartbeat IPC: 1.65585 cumulative IPC: 1.28793 (Simulation time: 1 hr 0 min 5 sec) 
Heartbeat CPU 0 instructions: 900000003 cycles: 591820068 heartbeat IPC: 1.65413 cumulative IPC: 1.29202 (Simulation time: 1 hr 0 min 59 sec) 
Heartbeat CPU 0 instructions: 910000000 cycles: 597865945 heartbeat IPC: 1.65402 cumulative IPC: 1.29601 (Simulation time: 1 hr 1 min 54 sec) 
Heartbeat CPU 0 instructions: 920000000 cycles: 603904181 heartbeat IPC: 1.65611 cumulative IPC: 1.29994 (Simulation time: 1 hr 2 min 48 sec) 
Heartbeat CPU 0 instructions: 930000002 cycles: 609954829 heartbeat IPC: 1.65272 cumulative IPC: 1.30375 (Simulation time: 1 hr 3 min 43 sec) 
Heartbeat CPU 0 instructions: 940000000 cycles: 624444675 heartbeat IPC: 0.690138 cumulative IPC: 1.28827 (Simulation time: 1 hr 5 min 19 sec) 
Heartbeat CPU 0 instructions: 950000002 cycles: 630490230 heartbeat IPC: 1.65411 cumulative IPC: 1.29208 (Simulation time: 1 hr 6 min 15 sec) 
Heartbeat CPU 0 instructions: 960000000 cycles: 636535164 heartbeat IPC: 1.65428 cumulative IPC: 1.29582 (Simulation time: 1 hr 7 min 10 sec) 
Heartbeat CPU 0 instructions: 970000002 cycles: 642574195 heartbeat IPC: 1.6559 cumulative IPC: 1.29949 (Simulation time: 1 hr 8 min 6 sec) 
Heartbeat CPU 0 instructions: 980000001 cycles: 648625482 heartbeat IPC: 1.65254 cumulative IPC: 1.30306 (Simulation time: 1 hr 9 min 2 sec) 
Heartbeat CPU 0 instructions: 990000003 cycles: 654664223 heartbeat IPC: 1.65597 cumulative IPC: 1.30658 (Simulation time: 1 hr 9 min 58 sec) 
Heartbeat CPU 0 instructions: 1000000003 cycles: 660709205 heartbeat IPC: 1.65426 cumulative IPC: 1.31002 (Simulation time: 1 hr 10 min 54 sec) 
Heartbeat CPU 0 instructions: 1010000002 cycles: 677882183 heartbeat IPC: 0.58231 cumulative IPC: 1.29012 (Simulation time: 1 hr 12 min 39 sec) 
Heartbeat CPU 0 instructions: 1020000002 cycles: 683924881 heartbeat IPC: 1.65489 cumulative IPC: 1.2936 (Simulation time: 1 hr 13 min 31 sec) 
Heartbeat CPU 0 instructions: 1030000000 cycles: 689975417 heartbeat IPC: 1.65275 cumulative IPC: 1.29699 (Simulation time: 1 hr 14 min 24 sec) 
Heartbeat CPU 0 instructions: 1040000000 cycles: 696012518 heartbeat IPC: 1.65642 cumulative IPC: 1.30035 (Simulation time: 1 hr 15 min 16 sec) 
Heartbeat CPU 0 instructions: 1050000000 cycles: 702059885 heartbeat IPC: 1.65361 cumulative IPC: 1.30363 (Simulation time: 1 hr 16 min 9 sec) 
Heartbeat CPU 0 instructions: 1060000000 cycles: 708103082 heartbeat IPC: 1.65475 cumulative IPC: 1.30685 (Simulation time: 1 hr 17 min 1 sec) 
Heartbeat CPU 0 instructions: 1070000001 cycles: 714144073 heartbeat IPC: 1.65536 cumulative IPC: 1.31002 (Simulation time: 1 hr 17 min 54 sec) 
Heartbeat CPU 0 instructions: 1080000001 cycles: 724065808 heartbeat IPC: 1.00789 cumulative IPC: 1.30557 (Simulation time: 1 hr 19 min 0 sec) 
Heartbeat CPU 0 instructions: 1090000000 cycles: 735099030 heartbeat IPC: 0.906353 cumulative IPC: 1.29914 (Simulation time: 1 hr 20 min 20 sec) 
Heartbeat CPU 0 instructions: 1100000000 cycles: 741145120 heartbeat IPC: 1.65396 cumulative IPC: 1.30225 (Simulation time: 1 hr 21 min 12 sec) 
Heartbeat CPU 0 instructions: 1110000002 cycles: 747190337 heartbeat IPC: 1.6542 cumulative IPC: 1.3053 (Simulation time: 1 hr 22 min 5 sec) 
Heartbeat CPU 0 instructions: 1120000000 cycles: 753228061 heartbeat IPC: 1.65625 cumulative IPC: 1.30831 (Simulation time: 1 hr 22 min 56 sec) 
Heartbeat CPU 0 instructions: 1130000000 cycles: 759277792 heartbeat IPC: 1.65297 cumulative IPC: 1.31125 (Simulation time: 1 hr 23 min 47 sec) 
Heartbeat CPU 0 instructions: 1140000000 cycles: 765316863 heartbeat IPC: 1.65588 cumulative IPC: 1.31416 (Simulation time: 1 hr 24 min 38 sec) 
Heartbeat CPU 0 instructions: 1150000000 cycles: 771364832 heartbeat IPC: 1.65345 cumulative IPC: 1.31701 (Simulation time: 1 hr 25 min 29 sec) 
Heartbeat CPU 0 instructions: 1160000001 cycles: 786346303 heartbeat IPC: 0.667491 cumulative IPC: 1.30379 (Simulation time: 1 hr 27 min 0 sec) 
Heartbeat CPU 0 instructions: 1170000000 cycles: 792389483 heartbeat IPC: 1.65476 cumulative IPC: 1.30665 (Simulation time: 1 hr 27 min 51 sec) 
Heartbeat CPU 0 instructions: 1180000000 cycles: 798439367 heartbeat IPC: 1.65292 cumulative IPC: 1.30945 (Simulation time: 1 hr 28 min 42 sec) 
Heartbeat CPU 0 instructions: 1190000001 cycles: 804475435 heartbeat IPC: 1.65671 cumulative IPC: 1.31223 (Simulation time: 1 hr 29 min 33 sec) 
Heartbeat CPU 0 instructions: 1200000000 cycles: 810525112 heartbeat IPC: 1.65298 cumulative IPC: 1.31494 (Simulation time: 1 hr 30 min 24 sec) 
Finished CPU 0 instructions: 1000000000 cycles: 760492577 cumulative IPC: 1.31494 (Simulation time: 1 hr 30 min 24 sec) 

ChampSim completed all CPUs

Region of Interest Statistics

CPU 0 cumulative IPC: 1.31494 instructions: 1000000000 cycles: 760492577
cpu0_DTLB TOTAL     ACCESS:  164960943  HIT:  164905983  MISS:      54960
cpu0_DTLB LOAD      ACCESS:  113719528  HIT:  113680279  MISS:      39249
cpu0_DTLB RFO       ACCESS:   51241415  HIT:   51225704  MISS:      15711
cpu0_DTLB PREFETCH  ACCESS:          0  HIT:          0  MISS:          0
cpu0_DTLB WRITEBACK ACCESS:          0  HIT:          0  MISS:          0
cpu0_DTLB TRANSLATION ACCESS:          0  HIT:          0  MISS:          0
cpu0_DTLB PREFETCH  REQUESTED:          0  ISSUED:          0  USEFUL:          0  USELESS:          0
cpu0_DTLB AVERAGE MISS LATENCY: 77.5646 cycles
cpu0_ITLB TOTAL     ACCESS:   66120956  HIT:   66120949  MISS:          7
cpu0_ITLB LOAD      ACCESS:   66120956  HIT:   66120949  MISS:          7
cpu0_ITLB RFO       ACCESS:          0  HIT:          0  MISS:          0
cpu0_ITLB PREFETCH  ACCESS:          0  HIT:          0  MISS:          0
cpu0_ITLB WRITEBACK ACCESS:          0  HIT:          0  MISS:          0
cpu0_ITLB TRANSLATION ACCESS:          0  HIT:          0  MISS:          0
cpu0_ITLB PREFETCH  REQUESTED:          0  ISSUED:          0  USEFUL:          0  USELESS:          0
cpu0_ITLB AVERAGE MISS LATENCY: 337.143 cycles
cpu0_L1I TOTAL     ACCESS:   64687785  HIT:   64687714  MISS:         71
cpu0_L1I LOAD      ACCESS:   64687785  HIT:   64687714  MISS:         71
cpu0_L1I RFO       ACCESS:          0  HIT:          0  MISS:          0
cpu0_L1I PREFETCH  ACCESS:          0  HIT:          0  MISS:          0
cpu0_L1I WRITEBACK ACCESS:          0  HIT:          0  MISS:          0
cpu0_L1I TRANSLATION ACCESS:          0  HIT:          0  MISS:          0
cpu0_L1I PREFETCH  REQUESTED:          0  ISSUED:          0  USEFUL:          0  USELESS:          0
cpu0_L1I AVERAGE MISS LATENCY: 242.859 cycles
cpu0_STLB TOTAL     ACCESS:      54967  HIT:      37396  MISS:      17571
cpu0_STLB LOAD      ACCESS:      39256  HIT:      27192  MISS:      12064
cpu0_STLB RFO       ACCESS:      15711  HIT:      10204  MISS:       5507
cpu0_STLB PREFETCH  ACCESS:          0  HIT:          0  MISS:          0
cpu0_STLB WRITEBACK ACCESS:          0  HIT:          0  MISS:          0
cpu0_STLB TRANSLATION ACCESS:          0  HIT:          0  MISS:          0
cpu0_STLB PREFETCH  REQUESTED:          0  ISSUED:          0  USEFUL:          0  USELESS:          0
cpu0_STLB AVERAGE MISS LATENCY: 208.333 cycles
cpu0_L1D TOTAL     ACCESS:  206548913  HIT:  204046449  MISS:    2502464
cpu0_L1D LOAD      ACCESS:  117114284  HIT:  115611526  MISS:    1502758
cpu0_L1D RFO       ACCESS:   89417091  HIT:   88417424  MISS:     999667
cpu0_L1D PREFETCH  ACCESS:          0  HIT:          0  MISS:          0
cpu0_L1D WRITEBACK ACCESS:          0  HIT:          0  MISS:          0
cpu0_L1D TRANSLATION ACCESS:      17538  HIT:      17499  MISS:         39
cpu0_L1D PREFETCH  REQUESTED:          0  ISSUED:          0  USEFUL:          0  USELESS:          0
cpu0_L1D AVERAGE MISS LATENCY: 456.076 cycles
cpu0_L2C TOTAL     ACCESS:    4547456  HIT:    1994802  MISS:    2552654
cpu0_L2C LOAD      ACCESS:    1502829  HIT:     982984  MISS:     519845
cpu0_L2C RFO       ACCESS:     999667  HIT:        416  MISS:     999251
cpu0_L2C PREFETCH  ACCESS:    1045152  HIT:      13652  MISS:    1031500
cpu0_L2C WRITEBACK ACCESS:     999769  HIT:     997750  MISS:       2019
cpu0_L2C TRANSLATION ACCESS:         39  HIT:          0  MISS:         39
cpu0_L2C PREFETCH  REQUESTED:    7388474  ISSUED:    6932980  USEFUL:    1407271  USELESS:      48475
cpu0_L2C AVERAGE MISS LATENCY: 420.377 cycles
LLC TOTAL     ACCESS:    6140933  HIT:    3529360  MISS:    2611573
LLC LOAD      ACCESS:      95566  HIT:       2391  MISS:      93175
LLC RFO       ACCESS:     999251  HIT:         79  MISS:     999172
LLC PREFETCH  ACCESS:    4046807  HIT:    2529675  MISS:    1517132
LLC WRITEBACK ACCESS:     999270  HIT:     997215  MISS:       2055
LLC TRANSLATION ACCESS:         39  HIT:          0  MISS:         39
LLC PREFETCH  REQUESTED:          0  ISSUED:          0  USEFUL:          0  USELESS:          0
LLC AVERAGE MISS LATENCY: 823.144 cycles

DRAM Statistics
 CHANNEL 0
 RQ ROW_BUFFER_HIT:     281761  ROW_BUFFER_MISS:    2327757
 DBUS AVG_CONGESTED_CYCLE:    3.98029
 WQ ROW_BUFFER_HIT:      87539  ROW_BUFFER_MISS:     911028  FULL:          0


CPU 0 Branch Prediction Accuracy: 90.3742% MPKI: 11.5802 Average ROB Occupancy at Mispredict: 21.4151
Branch type MPKI
BRANCH_DIRECT_JUMP: 8e-06
BRANCH_INDIRECT: 0
BRANCH_CONDITIONAL: 11.5801
BRANCH_DIRECT_CALL: 8e-06
BRANCH_INDIRECT_CALL: 0
BRANCH_RETURN: 9e-06

***************** Done with 654.roms_s-842B.champsimtrace.xz using spp-dev-agg, on Mon Apr 18 21:06:42 CDT 2022 ******************
