Started running file 621.wrf_s-575B.champsimtrace.xz at time Wed Apr 20 04:42:52 CDT 2022 with prefetcher ppf-spp-dev-3

*** ChampSim Multicore Out-of-Order Simulator ***

Warmup Instructions: 200000000
Simulation Instructions: 1000000000
Number of CPUs: 1
Off-chip DRAM Size: 4 GiB Channels: 1 Width: 64-bit Data Rate: 3200 MT/s

VirtualMemory physical capacity: 8588881920 num_ppages: 2096895
VirtualMemory page size: 4096 log2_page_size: 12

CPU 0 runs /home/faculty/p/pgratz/dpc3_traces/621.wrf_s-575B.champsimtrace.xz
CPU 0 Bimodal branch predictor
Basic BTB sets: 1024 ways: 8 indirect buffer size: 4096 RAS size: 64
cpu0_L2C PPF SPP DEV Prefetcher
Heartbeat CPU 0 instructions: 10000003 cycles: 2501548 heartbeat IPC: 3.99753 cumulative IPC: 3.99753 (Simulation time: 0 hr 0 min 28 sec) 
Heartbeat CPU 0 instructions: 20000002 cycles: 5002985 heartbeat IPC: 3.9977 cumulative IPC: 3.99761 (Simulation time: 0 hr 0 min 56 sec) 
Heartbeat CPU 0 instructions: 30000002 cycles: 7504418 heartbeat IPC: 3.99771 cumulative IPC: 3.99765 (Simulation time: 0 hr 1 min 24 sec) 
Heartbeat CPU 0 instructions: 40000003 cycles: 10005848 heartbeat IPC: 3.99771 cumulative IPC: 3.99766 (Simulation time: 0 hr 1 min 52 sec) 
Heartbeat CPU 0 instructions: 50000002 cycles: 12507280 heartbeat IPC: 3.99771 cumulative IPC: 3.99767 (Simulation time: 0 hr 2 min 20 sec) 
Heartbeat CPU 0 instructions: 60000002 cycles: 15008704 heartbeat IPC: 3.99772 cumulative IPC: 3.99768 (Simulation time: 0 hr 2 min 49 sec) 
Heartbeat CPU 0 instructions: 70000003 cycles: 17511542 heartbeat IPC: 3.99546 cumulative IPC: 3.99736 (Simulation time: 0 hr 3 min 17 sec) 
Heartbeat CPU 0 instructions: 80000000 cycles: 20012955 heartbeat IPC: 3.99774 cumulative IPC: 3.99741 (Simulation time: 0 hr 3 min 44 sec) 
Heartbeat CPU 0 instructions: 90000002 cycles: 22514367 heartbeat IPC: 3.99774 cumulative IPC: 3.99745 (Simulation time: 0 hr 4 min 12 sec) 
Heartbeat CPU 0 instructions: 100000003 cycles: 25015771 heartbeat IPC: 3.99776 cumulative IPC: 3.99748 (Simulation time: 0 hr 4 min 40 sec) 
Heartbeat CPU 0 instructions: 110000002 cycles: 27517172 heartbeat IPC: 3.99776 cumulative IPC: 3.9975 (Simulation time: 0 hr 5 min 8 sec) 
Heartbeat CPU 0 instructions: 120000002 cycles: 30018575 heartbeat IPC: 3.99776 cumulative IPC: 3.99752 (Simulation time: 0 hr 5 min 35 sec) 
Heartbeat CPU 0 instructions: 130000000 cycles: 32519974 heartbeat IPC: 3.99776 cumulative IPC: 3.99754 (Simulation time: 0 hr 6 min 3 sec) 
Heartbeat CPU 0 instructions: 140000003 cycles: 35022776 heartbeat IPC: 3.99552 cumulative IPC: 3.9974 (Simulation time: 0 hr 6 min 30 sec) 
Heartbeat CPU 0 instructions: 150000002 cycles: 37524177 heartbeat IPC: 3.99776 cumulative IPC: 3.99742 (Simulation time: 0 hr 6 min 57 sec) 
Heartbeat CPU 0 instructions: 160000001 cycles: 40025581 heartbeat IPC: 3.99775 cumulative IPC: 3.99744 (Simulation time: 0 hr 7 min 25 sec) 
Heartbeat CPU 0 instructions: 170000003 cycles: 42526987 heartbeat IPC: 3.99775 cumulative IPC: 3.99746 (Simulation time: 0 hr 7 min 52 sec) 
Heartbeat CPU 0 instructions: 180000001 cycles: 45028395 heartbeat IPC: 3.99775 cumulative IPC: 3.99748 (Simulation time: 0 hr 8 min 19 sec) 
Heartbeat CPU 0 instructions: 190000000 cycles: 47529805 heartbeat IPC: 3.99774 cumulative IPC: 3.99749 (Simulation time: 0 hr 8 min 46 sec) 
Heartbeat CPU 0 instructions: 200000000 cycles: 50032636 heartbeat IPC: 3.99548 cumulative IPC: 3.99739 (Simulation time: 0 hr 9 min 14 sec) 

Warmup complete CPU 0 instructions: 200000004 cycles: 50032637 (Simulation time: 0 hr 9 min 14 sec) 

Heartbeat CPU 0 instructions: 210000000 cycles: 59580154 heartbeat IPC: 1.04739 cumulative IPC: 1.04739 (Simulation time: 0 hr 9 min 50 sec) 
Heartbeat CPU 0 instructions: 220000001 cycles: 69094524 heartbeat IPC: 1.05104 cumulative IPC: 1.04921 (Simulation time: 0 hr 10 min 27 sec) 
Heartbeat CPU 0 instructions: 230000002 cycles: 78674366 heartbeat IPC: 1.04386 cumulative IPC: 1.04742 (Simulation time: 0 hr 11 min 4 sec) 
Heartbeat CPU 0 instructions: 240000003 cycles: 88322996 heartbeat IPC: 1.03642 cumulative IPC: 1.04465 (Simulation time: 0 hr 11 min 41 sec) 
Heartbeat CPU 0 instructions: 250000003 cycles: 97992355 heartbeat IPC: 1.03419 cumulative IPC: 1.04254 (Simulation time: 0 hr 12 min 18 sec) 
Heartbeat CPU 0 instructions: 260000000 cycles: 107649953 heartbeat IPC: 1.03545 cumulative IPC: 1.04135 (Simulation time: 0 hr 12 min 55 sec) 
Heartbeat CPU 0 instructions: 270000002 cycles: 117301808 heartbeat IPC: 1.03607 cumulative IPC: 1.0406 (Simulation time: 0 hr 13 min 33 sec) 
Heartbeat CPU 0 instructions: 280000002 cycles: 126943903 heartbeat IPC: 1.03712 cumulative IPC: 1.04016 (Simulation time: 0 hr 14 min 10 sec) 
Heartbeat CPU 0 instructions: 290000000 cycles: 136638009 heartbeat IPC: 1.03155 cumulative IPC: 1.0392 (Simulation time: 0 hr 14 min 47 sec) 
Heartbeat CPU 0 instructions: 300000001 cycles: 146312509 heartbeat IPC: 1.03365 cumulative IPC: 1.03864 (Simulation time: 0 hr 15 min 24 sec) 
Heartbeat CPU 0 instructions: 310000003 cycles: 155912742 heartbeat IPC: 1.04164 cumulative IPC: 1.03891 (Simulation time: 0 hr 16 min 2 sec) 
Heartbeat CPU 0 instructions: 320000002 cycles: 165666773 heartbeat IPC: 1.02522 cumulative IPC: 1.03776 (Simulation time: 0 hr 16 min 39 sec) 
Heartbeat CPU 0 instructions: 330000002 cycles: 175352169 heartbeat IPC: 1.03248 cumulative IPC: 1.03735 (Simulation time: 0 hr 17 min 16 sec) 
Heartbeat CPU 0 instructions: 340000001 cycles: 183103518 heartbeat IPC: 1.2901 cumulative IPC: 1.05207 (Simulation time: 0 hr 18 min 1 sec) 
Heartbeat CPU 0 instructions: 350000001 cycles: 190612117 heartbeat IPC: 1.33181 cumulative IPC: 1.06701 (Simulation time: 0 hr 18 min 41 sec) 
Heartbeat CPU 0 instructions: 360000001 cycles: 198361899 heartbeat IPC: 1.29036 cumulative IPC: 1.07868 (Simulation time: 0 hr 19 min 22 sec) 
Heartbeat CPU 0 instructions: 370000002 cycles: 206121980 heartbeat IPC: 1.28865 cumulative IPC: 1.08912 (Simulation time: 0 hr 20 min 3 sec) 
Heartbeat CPU 0 instructions: 380000000 cycles: 213933372 heartbeat IPC: 1.28018 cumulative IPC: 1.09823 (Simulation time: 0 hr 20 min 43 sec) 
Heartbeat CPU 0 instructions: 390000000 cycles: 232292574 heartbeat IPC: 0.544686 cumulative IPC: 1.04247 (Simulation time: 0 hr 22 min 45 sec) 
Heartbeat CPU 0 instructions: 400000000 cycles: 238044774 heartbeat IPC: 1.73847 cumulative IPC: 1.06376 (Simulation time: 0 hr 23 min 31 sec) 
Heartbeat CPU 0 instructions: 410000002 cycles: 243625733 heartbeat IPC: 1.79181 cumulative IPC: 1.08475 (Simulation time: 0 hr 24 min 17 sec) 
Heartbeat CPU 0 instructions: 420000001 cycles: 249003189 heartbeat IPC: 1.85962 cumulative IPC: 1.10569 (Simulation time: 0 hr 25 min 2 sec) 
Heartbeat CPU 0 instructions: 430000000 cycles: 254472184 heartbeat IPC: 1.82849 cumulative IPC: 1.12503 (Simulation time: 0 hr 25 min 46 sec) 
Heartbeat CPU 0 instructions: 440000000 cycles: 259973695 heartbeat IPC: 1.81768 cumulative IPC: 1.14318 (Simulation time: 0 hr 26 min 31 sec) 
Heartbeat CPU 0 instructions: 450000001 cycles: 265438684 heartbeat IPC: 1.82983 cumulative IPC: 1.1606 (Simulation time: 0 hr 27 min 16 sec) 
Heartbeat CPU 0 instructions: 460000001 cycles: 270827332 heartbeat IPC: 1.85575 cumulative IPC: 1.17756 (Simulation time: 0 hr 28 min 0 sec) 
Heartbeat CPU 0 instructions: 470000003 cycles: 275989002 heartbeat IPC: 1.93736 cumulative IPC: 1.19492 (Simulation time: 0 hr 28 min 46 sec) 
Heartbeat CPU 0 instructions: 480000001 cycles: 281385787 heartbeat IPC: 1.85295 cumulative IPC: 1.21027 (Simulation time: 0 hr 29 min 31 sec) 
Heartbeat CPU 0 instructions: 490000002 cycles: 287899278 heartbeat IPC: 1.53528 cumulative IPC: 1.21917 (Simulation time: 0 hr 30 min 22 sec) 
Heartbeat CPU 0 instructions: 500000001 cycles: 294456262 heartbeat IPC: 1.52509 cumulative IPC: 1.22738 (Simulation time: 0 hr 31 min 14 sec) 
Heartbeat CPU 0 instructions: 510000002 cycles: 301035023 heartbeat IPC: 1.52004 cumulative IPC: 1.23505 (Simulation time: 0 hr 32 min 6 sec) 
Heartbeat CPU 0 instructions: 520000001 cycles: 307494998 heartbeat IPC: 1.54799 cumulative IPC: 1.2429 (Simulation time: 0 hr 32 min 58 sec) 
Heartbeat CPU 0 instructions: 530000000 cycles: 314231823 heartbeat IPC: 1.48438 cumulative IPC: 1.24906 (Simulation time: 0 hr 33 min 50 sec) 
Heartbeat CPU 0 instructions: 540000002 cycles: 320974920 heartbeat IPC: 1.483 cumulative IPC: 1.25488 (Simulation time: 0 hr 34 min 42 sec) 
Heartbeat CPU 0 instructions: 550000003 cycles: 327730778 heartbeat IPC: 1.4802 cumulative IPC: 1.26036 (Simulation time: 0 hr 35 min 34 sec) 
Heartbeat CPU 0 instructions: 560000000 cycles: 334246968 heartbeat IPC: 1.53464 cumulative IPC: 1.26665 (Simulation time: 0 hr 36 min 26 sec) 
Heartbeat CPU 0 instructions: 570000004 cycles: 340854592 heartbeat IPC: 1.5134 cumulative IPC: 1.27226 (Simulation time: 0 hr 37 min 18 sec) 
Heartbeat CPU 0 instructions: 580000002 cycles: 347522777 heartbeat IPC: 1.49966 cumulative IPC: 1.27735 (Simulation time: 0 hr 38 min 11 sec) 
Heartbeat CPU 0 instructions: 590000000 cycles: 354235695 heartbeat IPC: 1.48966 cumulative IPC: 1.28204 (Simulation time: 0 hr 39 min 3 sec) 
Heartbeat CPU 0 instructions: 600000001 cycles: 360938924 heartbeat IPC: 1.49182 cumulative IPC: 1.28656 (Simulation time: 0 hr 39 min 54 sec) 
Heartbeat CPU 0 instructions: 610000003 cycles: 367468820 heartbeat IPC: 1.53142 cumulative IPC: 1.2916 (Simulation time: 0 hr 40 min 47 sec) 
Heartbeat CPU 0 instructions: 620000003 cycles: 381191227 heartbeat IPC: 0.728735 cumulative IPC: 1.26827 (Simulation time: 0 hr 42 min 20 sec) 
Heartbeat CPU 0 instructions: 630000004 cycles: 394839588 heartbeat IPC: 0.732689 cumulative IPC: 1.24707 (Simulation time: 0 hr 43 min 44 sec) 
Heartbeat CPU 0 instructions: 640000004 cycles: 406808716 heartbeat IPC: 0.835483 cumulative IPC: 1.23327 (Simulation time: 0 hr 45 min 3 sec) 
Heartbeat CPU 0 instructions: 650000001 cycles: 422513561 heartbeat IPC: 0.636746 cumulative IPC: 1.20812 (Simulation time: 0 hr 46 min 38 sec) 
Heartbeat CPU 0 instructions: 660000001 cycles: 435243201 heartbeat IPC: 0.785568 cumulative IPC: 1.19415 (Simulation time: 0 hr 47 min 53 sec) 
Heartbeat CPU 0 instructions: 670000002 cycles: 443681936 heartbeat IPC: 1.18501 cumulative IPC: 1.19396 (Simulation time: 0 hr 49 min 0 sec) 
Heartbeat CPU 0 instructions: 680000001 cycles: 466821072 heartbeat IPC: 0.432168 cumulative IPC: 1.15166 (Simulation time: 0 hr 51 min 23 sec) 
Heartbeat CPU 0 instructions: 690000000 cycles: 471016482 heartbeat IPC: 2.38356 cumulative IPC: 1.16394 (Simulation time: 0 hr 52 min 14 sec) 
Heartbeat CPU 0 instructions: 700000004 cycles: 475565082 heartbeat IPC: 2.19848 cumulative IPC: 1.175 (Simulation time: 0 hr 53 min 9 sec) 
Heartbeat CPU 0 instructions: 710000000 cycles: 479873327 heartbeat IPC: 2.32113 cumulative IPC: 1.18649 (Simulation time: 0 hr 54 min 0 sec) 
Heartbeat CPU 0 instructions: 720000003 cycles: 483980816 heartbeat IPC: 2.43458 cumulative IPC: 1.1983 (Simulation time: 0 hr 54 min 45 sec) 
Heartbeat CPU 0 instructions: 730000002 cycles: 488418367 heartbeat IPC: 2.25349 cumulative IPC: 1.20898 (Simulation time: 0 hr 55 min 34 sec) 
Heartbeat CPU 0 instructions: 740000004 cycles: 493738413 heartbeat IPC: 1.87968 cumulative IPC: 1.21702 (Simulation time: 0 hr 56 min 25 sec) 
Heartbeat CPU 0 instructions: 750000003 cycles: 504596932 heartbeat IPC: 0.920936 cumulative IPC: 1.20995 (Simulation time: 0 hr 57 min 48 sec) 
Heartbeat CPU 0 instructions: 760000000 cycles: 514086580 heartbeat IPC: 1.05378 cumulative IPC: 1.20676 (Simulation time: 0 hr 59 min 3 sec) 
Heartbeat CPU 0 instructions: 770000001 cycles: 522784406 heartbeat IPC: 1.14971 cumulative IPC: 1.20571 (Simulation time: 1 hr 0 min 11 sec) 
Heartbeat CPU 0 instructions: 780000000 cycles: 528324817 heartbeat IPC: 1.80492 cumulative IPC: 1.21265 (Simulation time: 1 hr 1 min 5 sec) 
Heartbeat CPU 0 instructions: 790000003 cycles: 533248767 heartbeat IPC: 2.03089 cumulative IPC: 1.22099 (Simulation time: 1 hr 1 min 55 sec) 
Heartbeat CPU 0 instructions: 800000003 cycles: 542638356 heartbeat IPC: 1.06501 cumulative IPC: 1.21801 (Simulation time: 1 hr 3 min 10 sec) 
Heartbeat CPU 0 instructions: 810000000 cycles: 552630711 heartbeat IPC: 1.00076 cumulative IPC: 1.21369 (Simulation time: 1 hr 4 min 38 sec) 
Heartbeat CPU 0 instructions: 820000003 cycles: 583535906 heartbeat IPC: 0.32357 cumulative IPC: 1.16213 (Simulation time: 1 hr 7 min 11 sec) 
Heartbeat CPU 0 instructions: 830000003 cycles: 596076634 heartbeat IPC: 0.797402 cumulative IPC: 1.15375 (Simulation time: 1 hr 8 min 37 sec) 
Heartbeat CPU 0 instructions: 840000000 cycles: 607010134 heartbeat IPC: 0.91462 cumulative IPC: 1.14906 (Simulation time: 1 hr 10 min 0 sec) 
Heartbeat CPU 0 instructions: 850000002 cycles: 629966725 heartbeat IPC: 0.435605 cumulative IPC: 1.12082 (Simulation time: 1 hr 12 min 19 sec) 
Heartbeat CPU 0 instructions: 860000004 cycles: 643992695 heartbeat IPC: 0.712963 cumulative IPC: 1.11119 (Simulation time: 1 hr 13 min 54 sec) 
Heartbeat CPU 0 instructions: 870000004 cycles: 647987448 heartbeat IPC: 2.50328 cumulative IPC: 1.12049 (Simulation time: 1 hr 14 min 37 sec) 
Heartbeat CPU 0 instructions: 880000002 cycles: 656000653 heartbeat IPC: 1.24794 cumulative IPC: 1.12217 (Simulation time: 1 hr 15 min 40 sec) 
Heartbeat CPU 0 instructions: 890000002 cycles: 660117168 heartbeat IPC: 2.42924 cumulative IPC: 1.13099 (Simulation time: 1 hr 16 min 23 sec) 
Heartbeat CPU 0 instructions: 900000004 cycles: 667568047 heartbeat IPC: 1.34212 cumulative IPC: 1.13354 (Simulation time: 1 hr 17 min 25 sec) 
Heartbeat CPU 0 instructions: 910000003 cycles: 671763885 heartbeat IPC: 2.38331 cumulative IPC: 1.14197 (Simulation time: 1 hr 18 min 9 sec) 
Heartbeat CPU 0 instructions: 920000004 cycles: 679260619 heartbeat IPC: 1.33391 cumulative IPC: 1.14426 (Simulation time: 1 hr 19 min 10 sec) 
Heartbeat CPU 0 instructions: 930000000 cycles: 683811203 heartbeat IPC: 2.19752 cumulative IPC: 1.15182 (Simulation time: 1 hr 19 min 56 sec) 
Heartbeat CPU 0 instructions: 940000003 cycles: 690889018 heartbeat IPC: 1.41287 cumulative IPC: 1.1547 (Simulation time: 1 hr 20 min 55 sec) 
Heartbeat CPU 0 instructions: 950000004 cycles: 695330933 heartbeat IPC: 2.25128 cumulative IPC: 1.16225 (Simulation time: 1 hr 21 min 41 sec) 
Heartbeat CPU 0 instructions: 960000001 cycles: 702870371 heartbeat IPC: 1.32636 cumulative IPC: 1.16415 (Simulation time: 1 hr 22 min 40 sec) 
Heartbeat CPU 0 instructions: 970000002 cycles: 711330177 heartbeat IPC: 1.18206 cumulative IPC: 1.16438 (Simulation time: 1 hr 23 min 31 sec) 
Heartbeat CPU 0 instructions: 980000001 cycles: 719850184 heartbeat IPC: 1.17371 cumulative IPC: 1.1645 (Simulation time: 1 hr 24 min 22 sec) 
Heartbeat CPU 0 instructions: 990000001 cycles: 728395827 heartbeat IPC: 1.17019 cumulative IPC: 1.16457 (Simulation time: 1 hr 25 min 13 sec) 
Heartbeat CPU 0 instructions: 1000000003 cycles: 741051102 heartbeat IPC: 0.790184 cumulative IPC: 1.15771 (Simulation time: 1 hr 26 min 30 sec) 
Heartbeat CPU 0 instructions: 1010000003 cycles: 759530964 heartbeat IPC: 0.54113 cumulative IPC: 1.14165 (Simulation time: 1 hr 28 min 18 sec) 
Heartbeat CPU 0 instructions: 1020000003 cycles: 764301004 heartbeat IPC: 2.09642 cumulative IPC: 1.14803 (Simulation time: 1 hr 29 min 12 sec) 
Heartbeat CPU 0 instructions: 1030000004 cycles: 768779240 heartbeat IPC: 2.23302 cumulative IPC: 1.15479 (Simulation time: 1 hr 30 min 6 sec) 
Heartbeat CPU 0 instructions: 1040000004 cycles: 772917102 heartbeat IPC: 2.41671 cumulative IPC: 1.16201 (Simulation time: 1 hr 30 min 57 sec) 
Heartbeat CPU 0 instructions: 1050000002 cycles: 777348669 heartbeat IPC: 2.25654 cumulative IPC: 1.16868 (Simulation time: 1 hr 31 min 45 sec) 
Heartbeat CPU 0 instructions: 1060000003 cycles: 781599749 heartbeat IPC: 2.35234 cumulative IPC: 1.17556 (Simulation time: 1 hr 32 min 34 sec) 
Heartbeat CPU 0 instructions: 1070000003 cycles: 785744714 heartbeat IPC: 2.41257 cumulative IPC: 1.18253 (Simulation time: 1 hr 33 min 18 sec) 
Heartbeat CPU 0 instructions: 1080000000 cycles: 794386019 heartbeat IPC: 1.15723 cumulative IPC: 1.18223 (Simulation time: 1 hr 34 min 29 sec) 
Heartbeat CPU 0 instructions: 1090000003 cycles: 805550880 heartbeat IPC: 0.895667 cumulative IPC: 1.178 (Simulation time: 1 hr 35 min 50 sec) 
Heartbeat CPU 0 instructions: 1100000001 cycles: 812945751 heartbeat IPC: 1.35229 cumulative IPC: 1.17969 (Simulation time: 1 hr 36 min 53 sec) 
Heartbeat CPU 0 instructions: 1110000003 cycles: 822055787 heartbeat IPC: 1.09769 cumulative IPC: 1.17872 (Simulation time: 1 hr 38 min 2 sec) 
Heartbeat CPU 0 instructions: 1120000000 cycles: 835657076 heartbeat IPC: 0.735224 cumulative IPC: 1.17104 (Simulation time: 1 hr 39 min 33 sec) 
Heartbeat CPU 0 instructions: 1130000001 cycles: 857829342 heartbeat IPC: 0.451014 cumulative IPC: 1.15128 (Simulation time: 1 hr 41 min 38 sec) 
Heartbeat CPU 0 instructions: 1140000002 cycles: 867258195 heartbeat IPC: 1.06057 cumulative IPC: 1.15023 (Simulation time: 1 hr 42 min 52 sec) 
Heartbeat CPU 0 instructions: 1150000002 cycles: 878522772 heartbeat IPC: 0.887739 cumulative IPC: 1.14666 (Simulation time: 1 hr 44 min 15 sec) 
Heartbeat CPU 0 instructions: 1160000002 cycles: 898642919 heartbeat IPC: 0.497014 cumulative IPC: 1.13126 (Simulation time: 1 hr 46 min 17 sec) 
Heartbeat CPU 0 instructions: 1170000001 cycles: 909422806 heartbeat IPC: 0.927653 cumulative IPC: 1.12871 (Simulation time: 1 hr 47 min 38 sec) 
Heartbeat CPU 0 instructions: 1180000000 cycles: 928785534 heartbeat IPC: 0.516456 cumulative IPC: 1.11522 (Simulation time: 1 hr 49 min 41 sec) 
Heartbeat CPU 0 instructions: 1190000001 cycles: 945685076 heartbeat IPC: 0.591732 cumulative IPC: 1.10534 (Simulation time: 1 hr 51 min 30 sec) 
Heartbeat CPU 0 instructions: 1200000000 cycles: 949825861 heartbeat IPC: 2.415 cumulative IPC: 1.11137 (Simulation time: 1 hr 52 min 12 sec) 
Finished CPU 0 instructions: 1000000001 cycles: 899793225 cumulative IPC: 1.11137 (Simulation time: 1 hr 52 min 12 sec) 

ChampSim completed all CPUs

Region of Interest Statistics

CPU 0 cumulative IPC: 1.11137 instructions: 1000000001 cycles: 899793225
cpu0_DTLB TOTAL     ACCESS:  225851719  HIT:  224746776  MISS:    1104943
cpu0_DTLB LOAD      ACCESS:  187954787  HIT:  187165837  MISS:     788950
cpu0_DTLB RFO       ACCESS:   37896932  HIT:   37580939  MISS:     315993
cpu0_DTLB PREFETCH  ACCESS:          0  HIT:          0  MISS:          0
cpu0_DTLB WRITEBACK ACCESS:          0  HIT:          0  MISS:          0
cpu0_DTLB TRANSLATION ACCESS:          0  HIT:          0  MISS:          0
cpu0_DTLB PREFETCH  REQUESTED:          0  ISSUED:          0  USEFUL:          0  USELESS:          0
cpu0_DTLB AVERAGE MISS LATENCY: 19.2156 cycles
cpu0_ITLB TOTAL     ACCESS:   51108606  HIT:   51107884  MISS:        722
cpu0_ITLB LOAD      ACCESS:   51108606  HIT:   51107884  MISS:        722
cpu0_ITLB RFO       ACCESS:          0  HIT:          0  MISS:          0
cpu0_ITLB PREFETCH  ACCESS:          0  HIT:          0  MISS:          0
cpu0_ITLB WRITEBACK ACCESS:          0  HIT:          0  MISS:          0
cpu0_ITLB TRANSLATION ACCESS:          0  HIT:          0  MISS:          0
cpu0_ITLB PREFETCH  REQUESTED:          0  ISSUED:          0  USEFUL:          0  USELESS:          0
cpu0_ITLB AVERAGE MISS LATENCY: 276.647 cycles
cpu0_L1I TOTAL     ACCESS:   30885133  HIT:   30324572  MISS:     560561
cpu0_L1I LOAD      ACCESS:   30885133  HIT:   30324572  MISS:     560561
cpu0_L1I RFO       ACCESS:          0  HIT:          0  MISS:          0
cpu0_L1I PREFETCH  ACCESS:          0  HIT:          0  MISS:          0
cpu0_L1I WRITEBACK ACCESS:          0  HIT:          0  MISS:          0
cpu0_L1I TRANSLATION ACCESS:          0  HIT:          0  MISS:          0
cpu0_L1I PREFETCH  REQUESTED:          0  ISSUED:          0  USEFUL:          0  USELESS:          0
cpu0_L1I AVERAGE MISS LATENCY: 20.005 cycles
cpu0_STLB TOTAL     ACCESS:    1105665  HIT:    1076036  MISS:      29629
cpu0_STLB LOAD      ACCESS:     789672  HIT:     773884  MISS:      15788
cpu0_STLB RFO       ACCESS:     315993  HIT:     302152  MISS:      13841
cpu0_STLB PREFETCH  ACCESS:          0  HIT:          0  MISS:          0
cpu0_STLB WRITEBACK ACCESS:          0  HIT:          0  MISS:          0
cpu0_STLB TRANSLATION ACCESS:          0  HIT:          0  MISS:          0
cpu0_STLB PREFETCH  REQUESTED:          0  ISSUED:          0  USEFUL:          0  USELESS:          0
cpu0_STLB AVERAGE MISS LATENCY: 306.366 cycles
cpu0_L1D TOTAL     ACCESS:  236925477  HIT:  221824626  MISS:   15100851
cpu0_L1D LOAD      ACCESS:  176535046  HIT:  165201216  MISS:   11333830
cpu0_L1D RFO       ACCESS:   60363152  HIT:   56599371  MISS:    3763781
cpu0_L1D PREFETCH  ACCESS:          0  HIT:          0  MISS:          0
cpu0_L1D WRITEBACK ACCESS:          0  HIT:          0  MISS:          0
cpu0_L1D TRANSLATION ACCESS:      27279  HIT:      24039  MISS:       3240
cpu0_L1D PREFETCH  REQUESTED:          0  ISSUED:          0  USEFUL:          0  USELESS:          0
cpu0_L1D AVERAGE MISS LATENCY: 234.557 cycles
cpu0_L2C TOTAL     ACCESS:   38366694  HIT:   29012913  MISS:    9353781
cpu0_L2C LOAD      ACCESS:   11893456  HIT:    9644645  MISS:    2248811
cpu0_L2C RFO       ACCESS:    3763382  HIT:    1933919  MISS:    1829463
cpu0_L2C PREFETCH  ACCESS:   16373007  HIT:   11103176  MISS:    5269831
cpu0_L2C WRITEBACK ACCESS:    6333609  HIT:    6328745  MISS:       4864
cpu0_L2C TRANSLATION ACCESS:       3240  HIT:       2428  MISS:        812
cpu0_L2C PREFETCH  REQUESTED:   54447637  ISSUED:   40473983  USEFUL:    6243237  USELESS:     211469
cpu0_L2C AVERAGE MISS LATENCY: 443.703 cycles
LLC TOTAL     ACCESS:   24318433  HIT:   16287543  MISS:    8030890
LLC LOAD      ACCESS:    1064721  HIT:     460140  MISS:     604581
LLC RFO       ACCESS:    1829006  HIT:     209466  MISS:    1619540
LLC PREFETCH  ACCESS:   17560537  HIT:   11764692  MISS:    5795845
LLC WRITEBACK ACCESS:    3863357  HIT:    3852827  MISS:      10530
LLC TRANSLATION ACCESS:        812  HIT:        418  MISS:        394
LLC PREFETCH  REQUESTED:          0  ISSUED:          0  USEFUL:          0  USELESS:          0
LLC AVERAGE MISS LATENCY: 1179.79 cycles
Printing the final status 

DRAM Statistics
 CHANNEL 0
 RQ ROW_BUFFER_HIT:    1422161  ROW_BUFFER_MISS:    6594544
 DBUS AVG_CONGESTED_CYCLE:    3.97962
 WQ ROW_BUFFER_HIT:     353072  ROW_BUFFER_MISS:    2895782  FULL:        331


CPU 0 Branch Prediction Accuracy: 95.7887% MPKI: 3.74292 Average ROB Occupancy at Mispredict: 167.003
Branch type MPKI
BRANCH_DIRECT_JUMP: 0.00039
BRANCH_INDIRECT: 1.7e-05
BRANCH_CONDITIONAL: 3.73927
BRANCH_DIRECT_CALL: 0.002478
BRANCH_INDIRECT_CALL: 0
BRANCH_RETURN: 0.000763

***************** Done with 621.wrf_s-575B.champsimtrace.xz using ppf-spp-dev-3, on Wed Apr 20 06:35:04 CDT 2022 ******************
