Started running file 628.pop2_s-17B.champsimtrace.xz at time Wed Apr 20 00:39:38 CDT 2022 with prefetcher ppf-spp-dev-3

*** ChampSim Multicore Out-of-Order Simulator ***

Warmup Instructions: 200000000
Simulation Instructions: 1000000000
Number of CPUs: 1
Off-chip DRAM Size: 4 GiB Channels: 1 Width: 64-bit Data Rate: 3200 MT/s

VirtualMemory physical capacity: 8588881920 num_ppages: 2096895
VirtualMemory page size: 4096 log2_page_size: 12

CPU 0 runs /home/faculty/p/pgratz/dpc3_traces/628.pop2_s-17B.champsimtrace.xz
CPU 0 Bimodal branch predictor
Basic BTB sets: 1024 ways: 8 indirect buffer size: 4096 RAS size: 64
cpu0_L2C PPF SPP DEV Prefetcher
Heartbeat CPU 0 instructions: 10000000 cycles: 2811766 heartbeat IPC: 3.55648 cumulative IPC: 3.55648 (Simulation time: 0 hr 0 min 33 sec) 
Heartbeat CPU 0 instructions: 20000002 cycles: 5623035 heartbeat IPC: 3.55711 cumulative IPC: 3.5568 (Simulation time: 0 hr 1 min 6 sec) 
Heartbeat CPU 0 instructions: 30000004 cycles: 8433686 heartbeat IPC: 3.5579 cumulative IPC: 3.55716 (Simulation time: 0 hr 1 min 39 sec) 
Heartbeat CPU 0 instructions: 40000001 cycles: 11242860 heartbeat IPC: 3.55976 cumulative IPC: 3.55781 (Simulation time: 0 hr 2 min 12 sec) 
Heartbeat CPU 0 instructions: 50000001 cycles: 14050938 heartbeat IPC: 3.56115 cumulative IPC: 3.55848 (Simulation time: 0 hr 2 min 45 sec) 
Heartbeat CPU 0 instructions: 60000001 cycles: 16859182 heartbeat IPC: 3.56094 cumulative IPC: 3.55889 (Simulation time: 0 hr 3 min 17 sec) 
Heartbeat CPU 0 instructions: 70000000 cycles: 19662748 heartbeat IPC: 3.56689 cumulative IPC: 3.56003 (Simulation time: 0 hr 3 min 50 sec) 
Heartbeat CPU 0 instructions: 80000001 cycles: 22279653 heartbeat IPC: 3.82131 cumulative IPC: 3.59072 (Simulation time: 0 hr 4 min 19 sec) 
Heartbeat CPU 0 instructions: 90000001 cycles: 25037565 heartbeat IPC: 3.62593 cumulative IPC: 3.5946 (Simulation time: 0 hr 4 min 48 sec) 
Heartbeat CPU 0 instructions: 100000000 cycles: 27829234 heartbeat IPC: 3.58209 cumulative IPC: 3.59334 (Simulation time: 0 hr 5 min 19 sec) 
Heartbeat CPU 0 instructions: 110000003 cycles: 30492135 heartbeat IPC: 3.7553 cumulative IPC: 3.60749 (Simulation time: 0 hr 5 min 49 sec) 
Heartbeat CPU 0 instructions: 120000004 cycles: 33361174 heartbeat IPC: 3.48549 cumulative IPC: 3.597 (Simulation time: 0 hr 6 min 14 sec) 
Heartbeat CPU 0 instructions: 130000001 cycles: 36215691 heartbeat IPC: 3.50322 cumulative IPC: 3.5896 (Simulation time: 0 hr 6 min 42 sec) 
Heartbeat CPU 0 instructions: 140000001 cycles: 39008685 heartbeat IPC: 3.58039 cumulative IPC: 3.58894 (Simulation time: 0 hr 7 min 3 sec) 
Heartbeat CPU 0 instructions: 150000001 cycles: 41711695 heartbeat IPC: 3.69958 cumulative IPC: 3.59611 (Simulation time: 0 hr 7 min 21 sec) 
Heartbeat CPU 0 instructions: 160000000 cycles: 44537153 heartbeat IPC: 3.53925 cumulative IPC: 3.59251 (Simulation time: 0 hr 7 min 40 sec) 
Heartbeat CPU 0 instructions: 170000000 cycles: 47311025 heartbeat IPC: 3.60507 cumulative IPC: 3.59324 (Simulation time: 0 hr 8 min 2 sec) 
Heartbeat CPU 0 instructions: 180000004 cycles: 50092542 heartbeat IPC: 3.59516 cumulative IPC: 3.59335 (Simulation time: 0 hr 8 min 31 sec) 
Heartbeat CPU 0 instructions: 190000003 cycles: 52902295 heartbeat IPC: 3.55903 cumulative IPC: 3.59153 (Simulation time: 0 hr 9 min 4 sec) 
Heartbeat CPU 0 instructions: 200000001 cycles: 55712677 heartbeat IPC: 3.55823 cumulative IPC: 3.58985 (Simulation time: 0 hr 9 min 37 sec) 

Warmup complete CPU 0 instructions: 200000001 cycles: 55712677 (Simulation time: 0 hr 9 min 37 sec) 

Heartbeat CPU 0 instructions: 210000002 cycles: 60099567 heartbeat IPC: 2.27952 cumulative IPC: 2.27952 (Simulation time: 0 hr 10 min 14 sec) 
Heartbeat CPU 0 instructions: 220000003 cycles: 64455989 heartbeat IPC: 2.29546 cumulative IPC: 2.28746 (Simulation time: 0 hr 10 min 52 sec) 
Heartbeat CPU 0 instructions: 230000001 cycles: 68846030 heartbeat IPC: 2.27788 cumulative IPC: 2.28426 (Simulation time: 0 hr 11 min 29 sec) 
Heartbeat CPU 0 instructions: 240000003 cycles: 73191174 heartbeat IPC: 2.30142 cumulative IPC: 2.28853 (Simulation time: 0 hr 12 min 7 sec) 
Heartbeat CPU 0 instructions: 250000001 cycles: 77412652 heartbeat IPC: 2.36884 cumulative IPC: 2.30415 (Simulation time: 0 hr 12 min 43 sec) 
Heartbeat CPU 0 instructions: 260000004 cycles: 81547773 heartbeat IPC: 2.41831 cumulative IPC: 2.32242 (Simulation time: 0 hr 13 min 15 sec) 
Heartbeat CPU 0 instructions: 270000000 cycles: 86629967 heartbeat IPC: 1.96765 cumulative IPC: 2.26411 (Simulation time: 0 hr 13 min 49 sec) 
Heartbeat CPU 0 instructions: 280000000 cycles: 92506345 heartbeat IPC: 1.70173 cumulative IPC: 2.17429 (Simulation time: 0 hr 14 min 31 sec) 
Heartbeat CPU 0 instructions: 290000000 cycles: 98504447 heartbeat IPC: 1.66719 cumulative IPC: 2.10321 (Simulation time: 0 hr 15 min 12 sec) 
Heartbeat CPU 0 instructions: 300000001 cycles: 105786405 heartbeat IPC: 1.37326 cumulative IPC: 1.99706 (Simulation time: 0 hr 15 min 54 sec) 
Heartbeat CPU 0 instructions: 310000001 cycles: 111164231 heartbeat IPC: 1.85949 cumulative IPC: 1.98371 (Simulation time: 0 hr 16 min 26 sec) 
Heartbeat CPU 0 instructions: 320000004 cycles: 117047686 heartbeat IPC: 1.69968 cumulative IPC: 1.95647 (Simulation time: 0 hr 16 min 56 sec) 
Heartbeat CPU 0 instructions: 330000000 cycles: 122147133 heartbeat IPC: 1.961 cumulative IPC: 1.95682 (Simulation time: 0 hr 17 min 23 sec) 
Heartbeat CPU 0 instructions: 340000001 cycles: 127902722 heartbeat IPC: 1.73744 cumulative IPC: 1.93933 (Simulation time: 0 hr 17 min 53 sec) 
Heartbeat CPU 0 instructions: 350000001 cycles: 132627966 heartbeat IPC: 2.11629 cumulative IPC: 1.9502 (Simulation time: 0 hr 18 min 21 sec) 
Heartbeat CPU 0 instructions: 360000002 cycles: 138292453 heartbeat IPC: 1.76539 cumulative IPC: 1.93752 (Simulation time: 0 hr 18 min 58 sec) 
Heartbeat CPU 0 instructions: 370000001 cycles: 142720620 heartbeat IPC: 2.25827 cumulative IPC: 1.95384 (Simulation time: 0 hr 19 min 36 sec) 
Heartbeat CPU 0 instructions: 380000004 cycles: 147182815 heartbeat IPC: 2.24105 cumulative IPC: 1.96786 (Simulation time: 0 hr 20 min 14 sec) 
Heartbeat CPU 0 instructions: 390000000 cycles: 151623062 heartbeat IPC: 2.25213 cumulative IPC: 1.98102 (Simulation time: 0 hr 20 min 51 sec) 
Heartbeat CPU 0 instructions: 400000002 cycles: 156095685 heartbeat IPC: 2.23582 cumulative IPC: 1.99237 (Simulation time: 0 hr 21 min 29 sec) 
Heartbeat CPU 0 instructions: 410000004 cycles: 160569229 heartbeat IPC: 2.23536 cumulative IPC: 2.00274 (Simulation time: 0 hr 22 min 7 sec) 
Heartbeat CPU 0 instructions: 420000001 cycles: 164982895 heartbeat IPC: 2.26569 cumulative IPC: 2.01336 (Simulation time: 0 hr 22 min 44 sec) 
Heartbeat CPU 0 instructions: 430000004 cycles: 169298778 heartbeat IPC: 2.31702 cumulative IPC: 2.0249 (Simulation time: 0 hr 23 min 21 sec) 
Heartbeat CPU 0 instructions: 440000003 cycles: 173183996 heartbeat IPC: 2.57386 cumulative IPC: 2.04305 (Simulation time: 0 hr 23 min 53 sec) 
Heartbeat CPU 0 instructions: 450000002 cycles: 178499333 heartbeat IPC: 1.88135 cumulative IPC: 2.03605 (Simulation time: 0 hr 24 min 28 sec) 
Heartbeat CPU 0 instructions: 460000003 cycles: 184177482 heartbeat IPC: 1.76114 cumulative IPC: 2.0239 (Simulation time: 0 hr 25 min 8 sec) 
Heartbeat CPU 0 instructions: 470000002 cycles: 189895430 heartbeat IPC: 1.74888 cumulative IPC: 2.01218 (Simulation time: 0 hr 25 min 49 sec) 
Heartbeat CPU 0 instructions: 480000002 cycles: 197334184 heartbeat IPC: 1.34431 cumulative IPC: 1.9771 (Simulation time: 0 hr 26 min 36 sec) 
Heartbeat CPU 0 instructions: 490000001 cycles: 202306580 heartbeat IPC: 2.0111 cumulative IPC: 1.97825 (Simulation time: 0 hr 27 min 7 sec) 
Heartbeat CPU 0 instructions: 500000004 cycles: 208669041 heartbeat IPC: 1.57172 cumulative IPC: 1.96134 (Simulation time: 0 hr 27 min 39 sec) 
Heartbeat CPU 0 instructions: 510000001 cycles: 213222940 heartbeat IPC: 2.19592 cumulative IPC: 1.96813 (Simulation time: 0 hr 28 min 4 sec) 
Heartbeat CPU 0 instructions: 520000002 cycles: 219550601 heartbeat IPC: 1.58036 cumulative IPC: 1.95315 (Simulation time: 0 hr 28 min 39 sec) 
Heartbeat CPU 0 instructions: 530000002 cycles: 224012168 heartbeat IPC: 2.24136 cumulative IPC: 1.96079 (Simulation time: 0 hr 29 min 4 sec) 
Heartbeat CPU 0 instructions: 540000000 cycles: 229751630 heartbeat IPC: 1.74232 cumulative IPC: 1.95359 (Simulation time: 0 hr 29 min 40 sec) 
Heartbeat CPU 0 instructions: 550000000 cycles: 234086627 heartbeat IPC: 2.30681 cumulative IPC: 1.96217 (Simulation time: 0 hr 30 min 18 sec) 
Heartbeat CPU 0 instructions: 560000004 cycles: 238420935 heartbeat IPC: 2.30717 cumulative IPC: 1.97035 (Simulation time: 0 hr 30 min 57 sec) 
Heartbeat CPU 0 instructions: 570000001 cycles: 242771520 heartbeat IPC: 2.29854 cumulative IPC: 1.97799 (Simulation time: 0 hr 31 min 35 sec) 
Heartbeat CPU 0 instructions: 580000002 cycles: 247114052 heartbeat IPC: 2.3028 cumulative IPC: 1.98536 (Simulation time: 0 hr 32 min 14 sec) 
Heartbeat CPU 0 instructions: 590000000 cycles: 251456678 heartbeat IPC: 2.30275 cumulative IPC: 1.9924 (Simulation time: 0 hr 32 min 52 sec) 
Heartbeat CPU 0 instructions: 600000002 cycles: 255779133 heartbeat IPC: 2.3135 cumulative IPC: 1.99934 (Simulation time: 0 hr 33 min 30 sec) 
Heartbeat CPU 0 instructions: 610000001 cycles: 260212370 heartbeat IPC: 2.25569 cumulative IPC: 2.00489 (Simulation time: 0 hr 34 min 8 sec) 
Heartbeat CPU 0 instructions: 620000001 cycles: 263901560 heartbeat IPC: 2.71062 cumulative IPC: 2.0174 (Simulation time: 0 hr 34 min 39 sec) 
Heartbeat CPU 0 instructions: 630000001 cycles: 269274710 heartbeat IPC: 1.86111 cumulative IPC: 2.01347 (Simulation time: 0 hr 35 min 16 sec) 
Heartbeat CPU 0 instructions: 640000004 cycles: 274325791 heartbeat IPC: 1.97977 cumulative IPC: 2.01269 (Simulation time: 0 hr 35 min 51 sec) 
Heartbeat CPU 0 instructions: 650000003 cycles: 280660231 heartbeat IPC: 1.57867 cumulative IPC: 2.00047 (Simulation time: 0 hr 36 min 35 sec) 
Heartbeat CPU 0 instructions: 660000003 cycles: 288415724 heartbeat IPC: 1.28941 cumulative IPC: 1.97677 (Simulation time: 0 hr 37 min 28 sec) 
Heartbeat CPU 0 instructions: 670000003 cycles: 293291536 heartbeat IPC: 2.05094 cumulative IPC: 1.97829 (Simulation time: 0 hr 37 min 56 sec) 
Heartbeat CPU 0 instructions: 680000004 cycles: 300420996 heartbeat IPC: 1.40263 cumulative IPC: 1.96152 (Simulation time: 0 hr 38 min 33 sec) 
Heartbeat CPU 0 instructions: 690000000 cycles: 304240032 heartbeat IPC: 2.61846 cumulative IPC: 1.97161 (Simulation time: 0 hr 38 min 52 sec) 
Heartbeat CPU 0 instructions: 700000001 cycles: 309572356 heartbeat IPC: 1.87536 cumulative IPC: 1.96959 (Simulation time: 0 hr 39 min 23 sec) 
Heartbeat CPU 0 instructions: 710000002 cycles: 315395733 heartbeat IPC: 1.71722 cumulative IPC: 1.96393 (Simulation time: 0 hr 39 min 54 sec) 
Heartbeat CPU 0 instructions: 720000001 cycles: 320505287 heartbeat IPC: 1.95712 cumulative IPC: 1.9638 (Simulation time: 0 hr 40 min 26 sec) 
Heartbeat CPU 0 instructions: 730000001 cycles: 325634053 heartbeat IPC: 1.94979 cumulative IPC: 1.96353 (Simulation time: 0 hr 41 min 6 sec) 
Heartbeat CPU 0 instructions: 740000000 cycles: 329919978 heartbeat IPC: 2.33322 cumulative IPC: 1.96931 (Simulation time: 0 hr 41 min 44 sec) 
Heartbeat CPU 0 instructions: 750000003 cycles: 334248376 heartbeat IPC: 2.31032 cumulative IPC: 1.97461 (Simulation time: 0 hr 42 min 23 sec) 
Heartbeat CPU 0 instructions: 760000003 cycles: 338585665 heartbeat IPC: 2.30559 cumulative IPC: 1.97969 (Simulation time: 0 hr 43 min 1 sec) 
Heartbeat CPU 0 instructions: 770000001 cycles: 342933565 heartbeat IPC: 2.29996 cumulative IPC: 1.98454 (Simulation time: 0 hr 43 min 40 sec) 
Heartbeat CPU 0 instructions: 780000003 cycles: 347333065 heartbeat IPC: 2.27299 cumulative IPC: 1.98889 (Simulation time: 0 hr 44 min 18 sec) 
Heartbeat CPU 0 instructions: 790000000 cycles: 351804464 heartbeat IPC: 2.23644 cumulative IPC: 1.99263 (Simulation time: 0 hr 44 min 57 sec) 
Heartbeat CPU 0 instructions: 800000002 cycles: 355797862 heartbeat IPC: 2.50413 cumulative IPC: 1.99943 (Simulation time: 0 hr 45 min 31 sec) 
Heartbeat CPU 0 instructions: 810000001 cycles: 360313096 heartbeat IPC: 2.21472 cumulative IPC: 2.00262 (Simulation time: 0 hr 46 min 5 sec) 
Heartbeat CPU 0 instructions: 820000002 cycles: 365379375 heartbeat IPC: 1.97384 cumulative IPC: 2.00215 (Simulation time: 0 hr 46 min 41 sec) 
Heartbeat CPU 0 instructions: 830000002 cycles: 371459128 heartbeat IPC: 1.6448 cumulative IPC: 1.99527 (Simulation time: 0 hr 47 min 24 sec) 
Heartbeat CPU 0 instructions: 840000001 cycles: 377324596 heartbeat IPC: 1.70489 cumulative IPC: 1.98998 (Simulation time: 0 hr 48 min 7 sec) 
Heartbeat CPU 0 instructions: 850000002 cycles: 384500366 heartbeat IPC: 1.39358 cumulative IPC: 1.97696 (Simulation time: 0 hr 48 min 47 sec) 
Heartbeat CPU 0 instructions: 860000000 cycles: 390082070 heartbeat IPC: 1.79157 cumulative IPC: 1.97386 (Simulation time: 0 hr 49 min 22 sec) 
Heartbeat CPU 0 instructions: 870000001 cycles: 395853173 heartbeat IPC: 1.73277 cumulative IPC: 1.96977 (Simulation time: 0 hr 49 min 51 sec) 
Heartbeat CPU 0 instructions: 880000000 cycles: 400941819 heartbeat IPC: 1.96516 cumulative IPC: 1.96971 (Simulation time: 0 hr 50 min 21 sec) 
Heartbeat CPU 0 instructions: 890000001 cycles: 406890116 heartbeat IPC: 1.68115 cumulative IPC: 1.96482 (Simulation time: 0 hr 50 min 53 sec) 
Heartbeat CPU 0 instructions: 900000004 cycles: 411621518 heartbeat IPC: 2.11354 cumulative IPC: 1.9668 (Simulation time: 0 hr 51 min 22 sec) 
Heartbeat CPU 0 instructions: 910000004 cycles: 417053707 heartbeat IPC: 1.84088 cumulative IPC: 1.9649 (Simulation time: 0 hr 52 min 0 sec) 
Heartbeat CPU 0 instructions: 920000004 cycles: 421312715 heartbeat IPC: 2.34796 cumulative IPC: 1.96937 (Simulation time: 0 hr 52 min 40 sec) 
Heartbeat CPU 0 instructions: 930000000 cycles: 425546972 heartbeat IPC: 2.36169 cumulative IPC: 1.97386 (Simulation time: 0 hr 53 min 19 sec) 
Heartbeat CPU 0 instructions: 940000004 cycles: 429783646 heartbeat IPC: 2.36034 cumulative IPC: 1.97823 (Simulation time: 0 hr 53 min 58 sec) 
Heartbeat CPU 0 instructions: 950000000 cycles: 434008456 heartbeat IPC: 2.36697 cumulative IPC: 1.98258 (Simulation time: 0 hr 54 min 37 sec) 
Heartbeat CPU 0 instructions: 960000003 cycles: 438243067 heartbeat IPC: 2.36149 cumulative IPC: 1.98677 (Simulation time: 0 hr 55 min 16 sec) 
Heartbeat CPU 0 instructions: 970000002 cycles: 442609587 heartbeat IPC: 2.29015 cumulative IPC: 1.99019 (Simulation time: 0 hr 55 min 55 sec) 
Heartbeat CPU 0 instructions: 980000003 cycles: 447083350 heartbeat IPC: 2.23526 cumulative IPC: 1.993 (Simulation time: 0 hr 56 min 33 sec) 
Heartbeat CPU 0 instructions: 990000000 cycles: 450891096 heartbeat IPC: 2.62622 cumulative IPC: 1.9991 (Simulation time: 0 hr 57 min 5 sec) 
Heartbeat CPU 0 instructions: 1000000001 cycles: 456212978 heartbeat IPC: 1.87903 cumulative IPC: 1.9975 (Simulation time: 0 hr 57 min 40 sec) 
Heartbeat CPU 0 instructions: 1010000003 cycles: 462066218 heartbeat IPC: 1.70846 cumulative IPC: 1.99334 (Simulation time: 0 hr 58 min 20 sec) 
Heartbeat CPU 0 instructions: 1020000000 cycles: 467715838 heartbeat IPC: 1.77003 cumulative IPC: 1.99028 (Simulation time: 0 hr 59 min 2 sec) 
Heartbeat CPU 0 instructions: 1030000002 cycles: 475329448 heartbeat IPC: 1.31344 cumulative IPC: 1.978 (Simulation time: 0 hr 59 min 50 sec) 
Heartbeat CPU 0 instructions: 1040000000 cycles: 480472248 heartbeat IPC: 1.94447 cumulative IPC: 1.97759 (Simulation time: 1 hr 0 min 20 sec) 
Heartbeat CPU 0 instructions: 1050000000 cycles: 487144605 heartbeat IPC: 1.49872 cumulative IPC: 1.97018 (Simulation time: 1 hr 0 min 54 sec) 
Heartbeat CPU 0 instructions: 1060000003 cycles: 491402939 heartbeat IPC: 2.34834 cumulative IPC: 1.97388 (Simulation time: 1 hr 1 min 17 sec) 
Heartbeat CPU 0 instructions: 1070000000 cycles: 497979776 heartbeat IPC: 1.52049 cumulative IPC: 1.96714 (Simulation time: 1 hr 1 min 54 sec) 
Heartbeat CPU 0 instructions: 1080000002 cycles: 502469065 heartbeat IPC: 2.22752 cumulative IPC: 1.96975 (Simulation time: 1 hr 2 min 20 sec) 
Heartbeat CPU 0 instructions: 1090000001 cycles: 508001021 heartbeat IPC: 1.80768 cumulative IPC: 1.96777 (Simulation time: 1 hr 2 min 54 sec) 
Heartbeat CPU 0 instructions: 1100000000 cycles: 512490487 heartbeat IPC: 2.22744 cumulative IPC: 1.97032 (Simulation time: 1 hr 3 min 33 sec) 
Heartbeat CPU 0 instructions: 1110000001 cycles: 516743563 heartbeat IPC: 2.35124 cumulative IPC: 1.97384 (Simulation time: 1 hr 4 min 12 sec) 
Heartbeat CPU 0 instructions: 1120000003 cycles: 521009309 heartbeat IPC: 2.34426 cumulative IPC: 1.97723 (Simulation time: 1 hr 4 min 51 sec) 
Heartbeat CPU 0 instructions: 1130000002 cycles: 525306024 heartbeat IPC: 2.32736 cumulative IPC: 1.98044 (Simulation time: 1 hr 5 min 30 sec) 
Heartbeat CPU 0 instructions: 1140000000 cycles: 529572213 heartbeat IPC: 2.34401 cumulative IPC: 1.98371 (Simulation time: 1 hr 6 min 9 sec) 
Heartbeat CPU 0 instructions: 1150000001 cycles: 533868942 heartbeat IPC: 2.32735 cumulative IPC: 1.9868 (Simulation time: 1 hr 6 min 47 sec) 
Heartbeat CPU 0 instructions: 1160000001 cycles: 538382201 heartbeat IPC: 2.21569 cumulative IPC: 1.98894 (Simulation time: 1 hr 7 min 25 sec) 
Heartbeat CPU 0 instructions: 1170000003 cycles: 542215110 heartbeat IPC: 2.60898 cumulative IPC: 1.99382 (Simulation time: 1 hr 7 min 58 sec) 
Heartbeat CPU 0 instructions: 1180000004 cycles: 547174511 heartbeat IPC: 2.01637 cumulative IPC: 1.99405 (Simulation time: 1 hr 8 min 34 sec) 
Heartbeat CPU 0 instructions: 1190000001 cycles: 552111529 heartbeat IPC: 2.02551 cumulative IPC: 1.99436 (Simulation time: 1 hr 9 min 8 sec) 
Heartbeat CPU 0 instructions: 1200000003 cycles: 558729355 heartbeat IPC: 1.51107 cumulative IPC: 1.98801 (Simulation time: 1 hr 9 min 53 sec) 
Finished CPU 0 instructions: 1000000002 cycles: 503016678 cumulative IPC: 1.98801 (Simulation time: 1 hr 9 min 53 sec) 

ChampSim completed all CPUs

Region of Interest Statistics

CPU 0 cumulative IPC: 1.98801 instructions: 1000000002 cycles: 503016678
cpu0_DTLB TOTAL     ACCESS:  195483906  HIT:  195014556  MISS:     469350
cpu0_DTLB LOAD      ACCESS:  157125951  HIT:  156741465  MISS:     384486
cpu0_DTLB RFO       ACCESS:   38357955  HIT:   38273091  MISS:      84864
cpu0_DTLB PREFETCH  ACCESS:          0  HIT:          0  MISS:          0
cpu0_DTLB WRITEBACK ACCESS:          0  HIT:          0  MISS:          0
cpu0_DTLB TRANSLATION ACCESS:          0  HIT:          0  MISS:          0
cpu0_DTLB PREFETCH  REQUESTED:          0  ISSUED:          0  USEFUL:          0  USELESS:          0
cpu0_DTLB AVERAGE MISS LATENCY: 25.001 cycles
cpu0_ITLB TOTAL     ACCESS:   98577472  HIT:   98556071  MISS:      21401
cpu0_ITLB LOAD      ACCESS:   98577472  HIT:   98556071  MISS:      21401
cpu0_ITLB RFO       ACCESS:          0  HIT:          0  MISS:          0
cpu0_ITLB PREFETCH  ACCESS:          0  HIT:          0  MISS:          0
cpu0_ITLB WRITEBACK ACCESS:          0  HIT:          0  MISS:          0
cpu0_ITLB TRANSLATION ACCESS:          0  HIT:          0  MISS:          0
cpu0_ITLB PREFETCH  REQUESTED:          0  ISSUED:          0  USEFUL:          0  USELESS:          0
cpu0_ITLB AVERAGE MISS LATENCY: 12.1569 cycles
cpu0_L1I TOTAL     ACCESS:    6296418  HIT:    5799789  MISS:     496629
cpu0_L1I LOAD      ACCESS:    6296418  HIT:    5799789  MISS:     496629
cpu0_L1I RFO       ACCESS:          0  HIT:          0  MISS:          0
cpu0_L1I PREFETCH  ACCESS:          0  HIT:          0  MISS:          0
cpu0_L1I WRITEBACK ACCESS:          0  HIT:          0  MISS:          0
cpu0_L1I TRANSLATION ACCESS:          0  HIT:          0  MISS:          0
cpu0_L1I PREFETCH  REQUESTED:          0  ISSUED:          0  USEFUL:          0  USELESS:          0
cpu0_L1I AVERAGE MISS LATENCY: 26.8072 cycles
cpu0_STLB TOTAL     ACCESS:     490751  HIT:     464559  MISS:      26192
cpu0_STLB LOAD      ACCESS:     405887  HIT:     395627  MISS:      10260
cpu0_STLB RFO       ACCESS:      84864  HIT:      68932  MISS:      15932
cpu0_STLB PREFETCH  ACCESS:          0  HIT:          0  MISS:          0
cpu0_STLB WRITEBACK ACCESS:          0  HIT:          0  MISS:          0
cpu0_STLB TRANSLATION ACCESS:          0  HIT:          0  MISS:          0
cpu0_STLB PREFETCH  REQUESTED:          0  ISSUED:          0  USEFUL:          0  USELESS:          0
cpu0_STLB AVERAGE MISS LATENCY: 250.813 cycles
cpu0_L1D TOTAL     ACCESS:  167996330  HIT:  153387402  MISS:   14608928
cpu0_L1D LOAD      ACCESS:  115050157  HIT:  105471146  MISS:    9579011
cpu0_L1D RFO       ACCESS:   52920085  HIT:   47902509  MISS:    5017576
cpu0_L1D PREFETCH  ACCESS:          0  HIT:          0  MISS:          0
cpu0_L1D WRITEBACK ACCESS:          0  HIT:          0  MISS:          0
cpu0_L1D TRANSLATION ACCESS:      26088  HIT:      13747  MISS:      12341
cpu0_L1D PREFETCH  REQUESTED:          0  ISSUED:          0  USEFUL:          0  USELESS:          0
cpu0_L1D AVERAGE MISS LATENCY: 94.3571 cycles
cpu0_L2C TOTAL     ACCESS:   41680047  HIT:   34487539  MISS:    7192508
cpu0_L2C LOAD      ACCESS:   10074317  HIT:    8683073  MISS:    1391244
cpu0_L2C RFO       ACCESS:    5017156  HIT:    2845776  MISS:    2171380
cpu0_L2C PREFETCH  ACCESS:   20041225  HIT:   16420703  MISS:    3620522
cpu0_L2C WRITEBACK ACCESS:    6535008  HIT:    6529668  MISS:       5340
cpu0_L2C TRANSLATION ACCESS:      12341  HIT:       8319  MISS:       4022
cpu0_L2C PREFETCH  REQUESTED:   41658962  ISSUED:   32988203  USEFUL:    3929035  USELESS:     368140
cpu0_L2C AVERAGE MISS LATENCY: 195.008 cycles
LLC TOTAL     ACCESS:   17535291  HIT:   13790601  MISS:    3744690
LLC LOAD      ACCESS:     715147  HIT:     544945  MISS:     170202
LLC RFO       ACCESS:    2171217  HIT:     893929  MISS:    1277288
LLC PREFETCH  ACCESS:   11511255  HIT:    9244522  MISS:    2266733
LLC WRITEBACK ACCESS:    3133650  HIT:    3103779  MISS:      29871
LLC TRANSLATION ACCESS:       4022  HIT:       3426  MISS:        596
LLC PREFETCH  REQUESTED:          0  ISSUED:          0  USEFUL:          0  USELESS:          0
LLC AVERAGE MISS LATENCY: 616.764 cycles
Printing the final status 

DRAM Statistics
 CHANNEL 0
 RQ ROW_BUFFER_HIT:    1252433  ROW_BUFFER_MISS:    2461159
 DBUS AVG_CONGESTED_CYCLE:     3.9587
 WQ ROW_BUFFER_HIT:     251920  ROW_BUFFER_MISS:    1537994  FULL:        559


CPU 0 Branch Prediction Accuracy: 95.9781% MPKI: 6.11584 Average ROB Occupancy at Mispredict: 108.108
Branch type MPKI
BRANCH_DIRECT_JUMP: 1.4e-05
BRANCH_INDIRECT: 0.000694
BRANCH_CONDITIONAL: 6.11512
BRANCH_DIRECT_CALL: 1.1e-05
BRANCH_INDIRECT_CALL: 0
BRANCH_RETURN: 0

***************** Done with 628.pop2_s-17B.champsimtrace.xz using ppf-spp-dev-3, on Wed Apr 20 01:49:31 CDT 2022 ******************
