Started running file 603.bwaves_s-3699B.champsimtrace.xz at time Wed Apr 20 01:27:32 CDT 2022 with prefetcher ppf-spp-dev-3

*** ChampSim Multicore Out-of-Order Simulator ***

Warmup Instructions: 200000000
Simulation Instructions: 1000000000
Number of CPUs: 1
Off-chip DRAM Size: 4 GiB Channels: 1 Width: 64-bit Data Rate: 3200 MT/s

VirtualMemory physical capacity: 8588881920 num_ppages: 2096895
VirtualMemory page size: 4096 log2_page_size: 12

CPU 0 runs /home/faculty/p/pgratz/dpc3_traces/603.bwaves_s-3699B.champsimtrace.xz
CPU 0 Bimodal branch predictor
Basic BTB sets: 1024 ways: 8 indirect buffer size: 4096 RAS size: 64
cpu0_L2C PPF SPP DEV Prefetcher
Heartbeat CPU 0 instructions: 10000000 cycles: 2685158 heartbeat IPC: 3.72418 cumulative IPC: 3.72418 (Simulation time: 0 hr 0 min 30 sec) 
Heartbeat CPU 0 instructions: 20000002 cycles: 5318711 heartbeat IPC: 3.79715 cumulative IPC: 3.76031 (Simulation time: 0 hr 1 min 0 sec) 
Heartbeat CPU 0 instructions: 30000003 cycles: 7940268 heartbeat IPC: 3.81453 cumulative IPC: 3.77821 (Simulation time: 0 hr 1 min 30 sec) 
Heartbeat CPU 0 instructions: 40000003 cycles: 10625391 heartbeat IPC: 3.72422 cumulative IPC: 3.76457 (Simulation time: 0 hr 2 min 0 sec) 
Heartbeat CPU 0 instructions: 50000002 cycles: 13309243 heartbeat IPC: 3.72599 cumulative IPC: 3.75679 (Simulation time: 0 hr 2 min 30 sec) 
Heartbeat CPU 0 instructions: 60000004 cycles: 15989462 heartbeat IPC: 3.73104 cumulative IPC: 3.75247 (Simulation time: 0 hr 2 min 59 sec) 
Heartbeat CPU 0 instructions: 70000000 cycles: 18666373 heartbeat IPC: 3.73565 cumulative IPC: 3.75006 (Simulation time: 0 hr 3 min 29 sec) 
Heartbeat CPU 0 instructions: 80000004 cycles: 21342356 heartbeat IPC: 3.73695 cumulative IPC: 3.74841 (Simulation time: 0 hr 3 min 59 sec) 
Heartbeat CPU 0 instructions: 90000001 cycles: 24020468 heartbeat IPC: 3.73397 cumulative IPC: 3.7468 (Simulation time: 0 hr 4 min 28 sec) 
Heartbeat CPU 0 instructions: 100000001 cycles: 26682873 heartbeat IPC: 3.756 cumulative IPC: 3.74772 (Simulation time: 0 hr 4 min 58 sec) 
Heartbeat CPU 0 instructions: 110000002 cycles: 29347062 heartbeat IPC: 3.75349 cumulative IPC: 3.74825 (Simulation time: 0 hr 5 min 27 sec) 
Heartbeat CPU 0 instructions: 120000002 cycles: 32009003 heartbeat IPC: 3.75666 cumulative IPC: 3.74895 (Simulation time: 0 hr 5 min 57 sec) 
Heartbeat CPU 0 instructions: 130000000 cycles: 34661387 heartbeat IPC: 3.77019 cumulative IPC: 3.75057 (Simulation time: 0 hr 6 min 26 sec) 
Heartbeat CPU 0 instructions: 140000000 cycles: 37292400 heartbeat IPC: 3.80082 cumulative IPC: 3.75412 (Simulation time: 0 hr 6 min 55 sec) 
Heartbeat CPU 0 instructions: 150000004 cycles: 39945224 heartbeat IPC: 3.76957 cumulative IPC: 3.75514 (Simulation time: 0 hr 7 min 25 sec) 
Heartbeat CPU 0 instructions: 160000001 cycles: 42603576 heartbeat IPC: 3.76173 cumulative IPC: 3.75555 (Simulation time: 0 hr 7 min 54 sec) 
Heartbeat CPU 0 instructions: 170000002 cycles: 45238911 heartbeat IPC: 3.79458 cumulative IPC: 3.75783 (Simulation time: 0 hr 8 min 23 sec) 
Heartbeat CPU 0 instructions: 180000003 cycles: 47874287 heartbeat IPC: 3.79453 cumulative IPC: 3.75985 (Simulation time: 0 hr 8 min 52 sec) 
Heartbeat CPU 0 instructions: 190000003 cycles: 50516459 heartbeat IPC: 3.78477 cumulative IPC: 3.76115 (Simulation time: 0 hr 9 min 22 sec) 
Heartbeat CPU 0 instructions: 200000000 cycles: 53183745 heartbeat IPC: 3.74913 cumulative IPC: 3.76055 (Simulation time: 0 hr 9 min 52 sec) 

Warmup complete CPU 0 instructions: 200000005 cycles: 53183746 (Simulation time: 0 hr 9 min 52 sec) 

Heartbeat CPU 0 instructions: 210000000 cycles: 59316736 heartbeat IPC: 1.63053 cumulative IPC: 1.63053 (Simulation time: 0 hr 10 min 19 sec) 
Heartbeat CPU 0 instructions: 220000003 cycles: 65531078 heartbeat IPC: 1.60918 cumulative IPC: 1.61978 (Simulation time: 0 hr 10 min 46 sec) 
Heartbeat CPU 0 instructions: 230000001 cycles: 71648616 heartbeat IPC: 1.63464 cumulative IPC: 1.62471 (Simulation time: 0 hr 11 min 13 sec) 
Heartbeat CPU 0 instructions: 240000000 cycles: 77792371 heartbeat IPC: 1.62767 cumulative IPC: 1.62545 (Simulation time: 0 hr 11 min 40 sec) 
Heartbeat CPU 0 instructions: 250000001 cycles: 83850977 heartbeat IPC: 1.65054 cumulative IPC: 1.6304 (Simulation time: 0 hr 12 min 7 sec) 
Heartbeat CPU 0 instructions: 260000000 cycles: 89954666 heartbeat IPC: 1.63835 cumulative IPC: 1.63172 (Simulation time: 0 hr 12 min 34 sec) 
Heartbeat CPU 0 instructions: 270000000 cycles: 96101114 heartbeat IPC: 1.62696 cumulative IPC: 1.63104 (Simulation time: 0 hr 13 min 1 sec) 
Heartbeat CPU 0 instructions: 280000003 cycles: 102115442 heartbeat IPC: 1.6627 cumulative IPC: 1.63493 (Simulation time: 0 hr 13 min 28 sec) 
Heartbeat CPU 0 instructions: 290000002 cycles: 108228746 heartbeat IPC: 1.63578 cumulative IPC: 1.63503 (Simulation time: 0 hr 13 min 55 sec) 
Heartbeat CPU 0 instructions: 300000000 cycles: 114368882 heartbeat IPC: 1.62863 cumulative IPC: 1.63438 (Simulation time: 0 hr 14 min 22 sec) 
Heartbeat CPU 0 instructions: 310000001 cycles: 120389345 heartbeat IPC: 1.661 cumulative IPC: 1.63677 (Simulation time: 0 hr 14 min 49 sec) 
Heartbeat CPU 0 instructions: 320000003 cycles: 126542201 heartbeat IPC: 1.62526 cumulative IPC: 1.6358 (Simulation time: 0 hr 15 min 15 sec) 
Heartbeat CPU 0 instructions: 330000003 cycles: 132721172 heartbeat IPC: 1.61839 cumulative IPC: 1.63445 (Simulation time: 0 hr 15 min 43 sec) 
Heartbeat CPU 0 instructions: 340000000 cycles: 138909755 heartbeat IPC: 1.61588 cumulative IPC: 1.63311 (Simulation time: 0 hr 16 min 10 sec) 
Heartbeat CPU 0 instructions: 350000002 cycles: 145043773 heartbeat IPC: 1.63025 cumulative IPC: 1.63292 (Simulation time: 0 hr 16 min 37 sec) 
Heartbeat CPU 0 instructions: 360000000 cycles: 151278909 heartbeat IPC: 1.60381 cumulative IPC: 1.63107 (Simulation time: 0 hr 17 min 4 sec) 
Heartbeat CPU 0 instructions: 370000001 cycles: 157315062 heartbeat IPC: 1.65668 cumulative IPC: 1.63255 (Simulation time: 0 hr 17 min 31 sec) 
Heartbeat CPU 0 instructions: 380000000 cycles: 163595940 heartbeat IPC: 1.59213 cumulative IPC: 1.63025 (Simulation time: 0 hr 17 min 58 sec) 
Heartbeat CPU 0 instructions: 390000004 cycles: 169722361 heartbeat IPC: 1.63227 cumulative IPC: 1.63036 (Simulation time: 0 hr 18 min 25 sec) 
Heartbeat CPU 0 instructions: 400000001 cycles: 176051329 heartbeat IPC: 1.58004 cumulative IPC: 1.62777 (Simulation time: 0 hr 18 min 52 sec) 
Heartbeat CPU 0 instructions: 410000001 cycles: 182277843 heartbeat IPC: 1.60604 cumulative IPC: 1.62672 (Simulation time: 0 hr 19 min 19 sec) 
Heartbeat CPU 0 instructions: 420000000 cycles: 188453036 heartbeat IPC: 1.61938 cumulative IPC: 1.62639 (Simulation time: 0 hr 19 min 46 sec) 
Heartbeat CPU 0 instructions: 430000000 cycles: 194624510 heartbeat IPC: 1.62036 cumulative IPC: 1.62612 (Simulation time: 0 hr 20 min 13 sec) 
Heartbeat CPU 0 instructions: 440000003 cycles: 200875507 heartbeat IPC: 1.59975 cumulative IPC: 1.62501 (Simulation time: 0 hr 20 min 40 sec) 
Heartbeat CPU 0 instructions: 450000004 cycles: 206926324 heartbeat IPC: 1.65267 cumulative IPC: 1.62609 (Simulation time: 0 hr 21 min 7 sec) 
Heartbeat CPU 0 instructions: 460000002 cycles: 212980195 heartbeat IPC: 1.65184 cumulative IPC: 1.62707 (Simulation time: 0 hr 21 min 34 sec) 
Heartbeat CPU 0 instructions: 470000003 cycles: 218913257 heartbeat IPC: 1.68547 cumulative IPC: 1.62916 (Simulation time: 0 hr 22 min 1 sec) 
Heartbeat CPU 0 instructions: 480000001 cycles: 224901912 heartbeat IPC: 1.66982 cumulative IPC: 1.63058 (Simulation time: 0 hr 22 min 27 sec) 
Heartbeat CPU 0 instructions: 490000003 cycles: 230839325 heartbeat IPC: 1.68424 cumulative IPC: 1.63237 (Simulation time: 0 hr 22 min 54 sec) 
Heartbeat CPU 0 instructions: 500000000 cycles: 236774499 heartbeat IPC: 1.68487 cumulative IPC: 1.63407 (Simulation time: 0 hr 23 min 20 sec) 
Heartbeat CPU 0 instructions: 510000003 cycles: 242706147 heartbeat IPC: 1.68587 cumulative IPC: 1.63569 (Simulation time: 0 hr 23 min 47 sec) 
Heartbeat CPU 0 instructions: 520000001 cycles: 248656557 heartbeat IPC: 1.68056 cumulative IPC: 1.63706 (Simulation time: 0 hr 24 min 14 sec) 
Heartbeat CPU 0 instructions: 530000000 cycles: 254863271 heartbeat IPC: 1.61116 cumulative IPC: 1.63626 (Simulation time: 0 hr 24 min 53 sec) 
Heartbeat CPU 0 instructions: 540000000 cycles: 260933745 heartbeat IPC: 1.64732 cumulative IPC: 1.63658 (Simulation time: 0 hr 25 min 28 sec) 
Heartbeat CPU 0 instructions: 550000000 cycles: 266866625 heartbeat IPC: 1.68552 cumulative IPC: 1.63794 (Simulation time: 0 hr 25 min 55 sec) 
Heartbeat CPU 0 instructions: 560000003 cycles: 272808987 heartbeat IPC: 1.68283 cumulative IPC: 1.63916 (Simulation time: 0 hr 26 min 21 sec) 
Heartbeat CPU 0 instructions: 570000000 cycles: 278743409 heartbeat IPC: 1.68508 cumulative IPC: 1.64036 (Simulation time: 0 hr 26 min 48 sec) 
Heartbeat CPU 0 instructions: 580000002 cycles: 284663953 heartbeat IPC: 1.68903 cumulative IPC: 1.64161 (Simulation time: 0 hr 27 min 15 sec) 
Heartbeat CPU 0 instructions: 590000000 cycles: 290602044 heartbeat IPC: 1.68404 cumulative IPC: 1.64267 (Simulation time: 0 hr 27 min 41 sec) 
Heartbeat CPU 0 instructions: 600000001 cycles: 296539953 heartbeat IPC: 1.68409 cumulative IPC: 1.64368 (Simulation time: 0 hr 28 min 8 sec) 
Heartbeat CPU 0 instructions: 610000000 cycles: 302465932 heartbeat IPC: 1.68748 cumulative IPC: 1.64472 (Simulation time: 0 hr 28 min 34 sec) 
Heartbeat CPU 0 instructions: 620000004 cycles: 308411717 heartbeat IPC: 1.68186 cumulative IPC: 1.64559 (Simulation time: 0 hr 29 min 1 sec) 
Heartbeat CPU 0 instructions: 630000000 cycles: 314355185 heartbeat IPC: 1.68252 cumulative IPC: 1.64643 (Simulation time: 0 hr 29 min 28 sec) 
Heartbeat CPU 0 instructions: 640000000 cycles: 320300419 heartbeat IPC: 1.68202 cumulative IPC: 1.64722 (Simulation time: 0 hr 29 min 54 sec) 
Heartbeat CPU 0 instructions: 650000000 cycles: 326237421 heartbeat IPC: 1.68435 cumulative IPC: 1.64803 (Simulation time: 0 hr 30 min 20 sec) 
Heartbeat CPU 0 instructions: 660000003 cycles: 332285005 heartbeat IPC: 1.65355 cumulative IPC: 1.64815 (Simulation time: 0 hr 30 min 47 sec) 
Heartbeat CPU 0 instructions: 670000002 cycles: 338449285 heartbeat IPC: 1.62225 cumulative IPC: 1.64759 (Simulation time: 0 hr 31 min 14 sec) 
Heartbeat CPU 0 instructions: 680000000 cycles: 344679932 heartbeat IPC: 1.60497 cumulative IPC: 1.64668 (Simulation time: 0 hr 31 min 41 sec) 
Heartbeat CPU 0 instructions: 690000000 cycles: 350853758 heartbeat IPC: 1.61974 cumulative IPC: 1.64612 (Simulation time: 0 hr 32 min 8 sec) 
Heartbeat CPU 0 instructions: 700000001 cycles: 356953099 heartbeat IPC: 1.63952 cumulative IPC: 1.64599 (Simulation time: 0 hr 32 min 35 sec) 
Heartbeat CPU 0 instructions: 710000000 cycles: 363188838 heartbeat IPC: 1.60366 cumulative IPC: 1.64513 (Simulation time: 0 hr 33 min 1 sec) 
Heartbeat CPU 0 instructions: 720000000 cycles: 369586802 heartbeat IPC: 1.563 cumulative IPC: 1.64347 (Simulation time: 0 hr 33 min 28 sec) 
Heartbeat CPU 0 instructions: 730000003 cycles: 375854792 heartbeat IPC: 1.59541 cumulative IPC: 1.64254 (Simulation time: 0 hr 33 min 55 sec) 
Heartbeat CPU 0 instructions: 740000001 cycles: 381997551 heartbeat IPC: 1.62793 cumulative IPC: 1.64227 (Simulation time: 0 hr 34 min 22 sec) 
Heartbeat CPU 0 instructions: 750000002 cycles: 388258426 heartbeat IPC: 1.59722 cumulative IPC: 1.64143 (Simulation time: 0 hr 34 min 49 sec) 
Heartbeat CPU 0 instructions: 760000000 cycles: 394416106 heartbeat IPC: 1.62399 cumulative IPC: 1.64111 (Simulation time: 0 hr 35 min 16 sec) 
Heartbeat CPU 0 instructions: 770000000 cycles: 400459711 heartbeat IPC: 1.65464 cumulative IPC: 1.64135 (Simulation time: 0 hr 35 min 43 sec) 
Heartbeat CPU 0 instructions: 780000003 cycles: 406599235 heartbeat IPC: 1.62879 cumulative IPC: 1.64113 (Simulation time: 0 hr 36 min 10 sec) 
Heartbeat CPU 0 instructions: 790000000 cycles: 412620704 heartbeat IPC: 1.66072 cumulative IPC: 1.64146 (Simulation time: 0 hr 36 min 36 sec) 
Heartbeat CPU 0 instructions: 800000003 cycles: 418743972 heartbeat IPC: 1.63312 cumulative IPC: 1.64132 (Simulation time: 0 hr 37 min 3 sec) 
Heartbeat CPU 0 instructions: 810000001 cycles: 424861268 heartbeat IPC: 1.63471 cumulative IPC: 1.64121 (Simulation time: 0 hr 37 min 30 sec) 
Heartbeat CPU 0 instructions: 820000001 cycles: 430966330 heartbeat IPC: 1.63798 cumulative IPC: 1.64116 (Simulation time: 0 hr 37 min 57 sec) 
Heartbeat CPU 0 instructions: 830000000 cycles: 436993127 heartbeat IPC: 1.65926 cumulative IPC: 1.64144 (Simulation time: 0 hr 38 min 25 sec) 
Heartbeat CPU 0 instructions: 840000004 cycles: 443122547 heartbeat IPC: 1.63148 cumulative IPC: 1.64128 (Simulation time: 0 hr 38 min 52 sec) 
Heartbeat CPU 0 instructions: 850000002 cycles: 449139661 heartbeat IPC: 1.66193 cumulative IPC: 1.6416 (Simulation time: 0 hr 39 min 19 sec) 
Heartbeat CPU 0 instructions: 860000004 cycles: 455271104 heartbeat IPC: 1.63094 cumulative IPC: 1.64143 (Simulation time: 0 hr 39 min 46 sec) 
Heartbeat CPU 0 instructions: 870000000 cycles: 461297767 heartbeat IPC: 1.65929 cumulative IPC: 1.6417 (Simulation time: 0 hr 40 min 13 sec) 
Heartbeat CPU 0 instructions: 880000000 cycles: 467468898 heartbeat IPC: 1.62045 cumulative IPC: 1.64138 (Simulation time: 0 hr 40 min 40 sec) 
Heartbeat CPU 0 instructions: 890000002 cycles: 473495280 heartbeat IPC: 1.65937 cumulative IPC: 1.64164 (Simulation time: 0 hr 41 min 7 sec) 
Heartbeat CPU 0 instructions: 900000001 cycles: 479629351 heartbeat IPC: 1.63024 cumulative IPC: 1.64148 (Simulation time: 0 hr 41 min 34 sec) 
Heartbeat CPU 0 instructions: 910000000 cycles: 485806686 heartbeat IPC: 1.61882 cumulative IPC: 1.64115 (Simulation time: 0 hr 42 min 1 sec) 
Heartbeat CPU 0 instructions: 920000002 cycles: 491853252 heartbeat IPC: 1.65383 cumulative IPC: 1.64133 (Simulation time: 0 hr 42 min 27 sec) 
Heartbeat CPU 0 instructions: 930000002 cycles: 497888969 heartbeat IPC: 1.6568 cumulative IPC: 1.64154 (Simulation time: 0 hr 42 min 54 sec) 
Heartbeat CPU 0 instructions: 940000003 cycles: 504081498 heartbeat IPC: 1.61485 cumulative IPC: 1.64117 (Simulation time: 0 hr 43 min 21 sec) 
Heartbeat CPU 0 instructions: 950000002 cycles: 510381269 heartbeat IPC: 1.58736 cumulative IPC: 1.64043 (Simulation time: 0 hr 43 min 48 sec) 
Heartbeat CPU 0 instructions: 960000000 cycles: 516549112 heartbeat IPC: 1.62131 cumulative IPC: 1.64017 (Simulation time: 0 hr 44 min 15 sec) 
Heartbeat CPU 0 instructions: 970000002 cycles: 522743399 heartbeat IPC: 1.61439 cumulative IPC: 1.63983 (Simulation time: 0 hr 44 min 42 sec) 
Heartbeat CPU 0 instructions: 980000003 cycles: 529214041 heartbeat IPC: 1.54544 cumulative IPC: 1.63855 (Simulation time: 0 hr 45 min 9 sec) 
Heartbeat CPU 0 instructions: 990000002 cycles: 535343749 heartbeat IPC: 1.6314 cumulative IPC: 1.63846 (Simulation time: 0 hr 45 min 36 sec) 
Heartbeat CPU 0 instructions: 1000000000 cycles: 541593282 heartbeat IPC: 1.60012 cumulative IPC: 1.63797 (Simulation time: 0 hr 46 min 3 sec) 
Heartbeat CPU 0 instructions: 1010000000 cycles: 547756159 heartbeat IPC: 1.62262 cumulative IPC: 1.63778 (Simulation time: 0 hr 46 min 30 sec) 
Heartbeat CPU 0 instructions: 1020000003 cycles: 553777241 heartbeat IPC: 1.66083 cumulative IPC: 1.63806 (Simulation time: 0 hr 46 min 56 sec) 
Heartbeat CPU 0 instructions: 1030000002 cycles: 559844239 heartbeat IPC: 1.64826 cumulative IPC: 1.63818 (Simulation time: 0 hr 47 min 23 sec) 
Heartbeat CPU 0 instructions: 1040000002 cycles: 565838862 heartbeat IPC: 1.66816 cumulative IPC: 1.63853 (Simulation time: 0 hr 47 min 50 sec) 
Heartbeat CPU 0 instructions: 1050000002 cycles: 571769318 heartbeat IPC: 1.68621 cumulative IPC: 1.63907 (Simulation time: 0 hr 48 min 16 sec) 
Heartbeat CPU 0 instructions: 1060000000 cycles: 577729985 heartbeat IPC: 1.67766 cumulative IPC: 1.63951 (Simulation time: 0 hr 48 min 42 sec) 
Heartbeat CPU 0 instructions: 1070000001 cycles: 583663812 heartbeat IPC: 1.68525 cumulative IPC: 1.64002 (Simulation time: 0 hr 49 min 9 sec) 
Heartbeat CPU 0 instructions: 1080000002 cycles: 589584029 heartbeat IPC: 1.68913 cumulative IPC: 1.64057 (Simulation time: 0 hr 49 min 36 sec) 
Heartbeat CPU 0 instructions: 1090000004 cycles: 595518046 heartbeat IPC: 1.6852 cumulative IPC: 1.64105 (Simulation time: 0 hr 50 min 2 sec) 
Heartbeat CPU 0 instructions: 1100000002 cycles: 601464913 heartbeat IPC: 1.68156 cumulative IPC: 1.64149 (Simulation time: 0 hr 50 min 29 sec) 
Heartbeat CPU 0 instructions: 1110000004 cycles: 607386116 heartbeat IPC: 1.68885 cumulative IPC: 1.642 (Simulation time: 0 hr 50 min 56 sec) 
Heartbeat CPU 0 instructions: 1120000000 cycles: 613319255 heartbeat IPC: 1.68545 cumulative IPC: 1.64246 (Simulation time: 0 hr 51 min 22 sec) 
Heartbeat CPU 0 instructions: 1130000001 cycles: 619263786 heartbeat IPC: 1.68222 cumulative IPC: 1.64288 (Simulation time: 0 hr 51 min 49 sec) 
Heartbeat CPU 0 instructions: 1140000003 cycles: 625109631 heartbeat IPC: 1.71062 cumulative IPC: 1.64357 (Simulation time: 0 hr 52 min 15 sec) 
Heartbeat CPU 0 instructions: 1150000002 cycles: 630901704 heartbeat IPC: 1.7265 cumulative IPC: 1.6444 (Simulation time: 0 hr 52 min 41 sec) 
Heartbeat CPU 0 instructions: 1160000000 cycles: 637323509 heartbeat IPC: 1.55719 cumulative IPC: 1.64344 (Simulation time: 0 hr 53 min 29 sec) 
Heartbeat CPU 0 instructions: 1170000002 cycles: 643214321 heartbeat IPC: 1.69756 cumulative IPC: 1.64398 (Simulation time: 0 hr 53 min 56 sec) 
Heartbeat CPU 0 instructions: 1180000002 cycles: 649150516 heartbeat IPC: 1.68458 cumulative IPC: 1.64439 (Simulation time: 0 hr 54 min 22 sec) 
Heartbeat CPU 0 instructions: 1190000004 cycles: 655069157 heartbeat IPC: 1.68958 cumulative IPC: 1.64483 (Simulation time: 0 hr 54 min 49 sec) 
Heartbeat CPU 0 instructions: 1200000000 cycles: 661002120 heartbeat IPC: 1.6855 cumulative IPC: 1.64523 (Simulation time: 0 hr 55 min 15 sec) 
Finished CPU 0 instructions: 1000000000 cycles: 607818377 cumulative IPC: 1.64523 (Simulation time: 0 hr 55 min 15 sec) 

ChampSim completed all CPUs

Region of Interest Statistics

CPU 0 cumulative IPC: 1.64523 instructions: 1000000000 cycles: 607818377
cpu0_DTLB TOTAL     ACCESS:  147680918  HIT:  147677630  MISS:       3288
cpu0_DTLB LOAD      ACCESS:  125388052  HIT:  125387423  MISS:        629
cpu0_DTLB RFO       ACCESS:   22292866  HIT:   22290207  MISS:       2659
cpu0_DTLB PREFETCH  ACCESS:          0  HIT:          0  MISS:          0
cpu0_DTLB WRITEBACK ACCESS:          0  HIT:          0  MISS:          0
cpu0_DTLB TRANSLATION ACCESS:          0  HIT:          0  MISS:          0
cpu0_DTLB PREFETCH  REQUESTED:          0  ISSUED:          0  USEFUL:          0  USELESS:          0
cpu0_DTLB AVERAGE MISS LATENCY: 204.262 cycles
cpu0_ITLB TOTAL     ACCESS:  119391404  HIT:  119391404  MISS:          0
cpu0_ITLB LOAD      ACCESS:  119391404  HIT:  119391404  MISS:          0
cpu0_ITLB RFO       ACCESS:          0  HIT:          0  MISS:          0
cpu0_ITLB PREFETCH  ACCESS:          0  HIT:          0  MISS:          0
cpu0_ITLB WRITEBACK ACCESS:          0  HIT:          0  MISS:          0
cpu0_ITLB TRANSLATION ACCESS:          0  HIT:          0  MISS:          0
cpu0_ITLB PREFETCH  REQUESTED:          0  ISSUED:          0  USEFUL:          0  USELESS:          0
cpu0_ITLB AVERAGE MISS LATENCY: -nan cycles
cpu0_L1I TOTAL     ACCESS:    5681773  HIT:    5681773  MISS:          0
cpu0_L1I LOAD      ACCESS:    5681773  HIT:    5681773  MISS:          0
cpu0_L1I RFO       ACCESS:          0  HIT:          0  MISS:          0
cpu0_L1I PREFETCH  ACCESS:          0  HIT:          0  MISS:          0
cpu0_L1I WRITEBACK ACCESS:          0  HIT:          0  MISS:          0
cpu0_L1I TRANSLATION ACCESS:          0  HIT:          0  MISS:          0
cpu0_L1I PREFETCH  REQUESTED:          0  ISSUED:          0  USEFUL:          0  USELESS:          0
cpu0_L1I AVERAGE MISS LATENCY: -nan cycles
cpu0_STLB TOTAL     ACCESS:       3288  HIT:        363  MISS:       2925
cpu0_STLB LOAD      ACCESS:        629  HIT:        318  MISS:        311
cpu0_STLB RFO       ACCESS:       2659  HIT:         45  MISS:       2614
cpu0_STLB PREFETCH  ACCESS:          0  HIT:          0  MISS:          0
cpu0_STLB WRITEBACK ACCESS:          0  HIT:          0  MISS:          0
cpu0_STLB TRANSLATION ACCESS:          0  HIT:          0  MISS:          0
cpu0_STLB PREFETCH  REQUESTED:          0  ISSUED:          0  USEFUL:          0  USELESS:          0
cpu0_STLB AVERAGE MISS LATENCY: 217.247 cycles
cpu0_L1D TOTAL     ACCESS:  166046724  HIT:  165842908  MISS:     203816
cpu0_L1D LOAD      ACCESS:  128630546  HIT:  128594830  MISS:      35716
cpu0_L1D RFO       ACCESS:   37413253  HIT:   37245396  MISS:     167857
cpu0_L1D PREFETCH  ACCESS:          0  HIT:          0  MISS:          0
cpu0_L1D WRITEBACK ACCESS:          0  HIT:          0  MISS:          0
cpu0_L1D TRANSLATION ACCESS:       2925  HIT:       2682  MISS:        243
cpu0_L1D PREFETCH  REQUESTED:          0  ISSUED:          0  USEFUL:          0  USELESS:          0
cpu0_L1D AVERAGE MISS LATENCY: 855.345 cycles
cpu0_L2C TOTAL     ACCESS:     408960  HIT:     207707  MISS:     201253
cpu0_L2C LOAD      ACCESS:      35716  HIT:      35031  MISS:        685
cpu0_L2C RFO       ACCESS:     167857  HIT:        450  MISS:     167407
cpu0_L2C PREFETCH  ACCESS:      37936  HIT:       4995  MISS:      32941
cpu0_L2C WRITEBACK ACCESS:     167208  HIT:     166988  MISS:        220
cpu0_L2C TRANSLATION ACCESS:        243  HIT:        243  MISS:          0
cpu0_L2C PREFETCH  REQUESTED:     190084  ISSUED:     188524  USEFUL:      32926  USELESS:         29
cpu0_L2C AVERAGE MISS LATENCY: 873.541 cycles
LLC TOTAL     ACCESS:     502587  HIT:     301367  MISS:     201220
LLC LOAD      ACCESS:        666  HIT:         27  MISS:        639
LLC RFO       ACCESS:     167407  HIT:          0  MISS:     167407
LLC PREFETCH  ACCESS:     167655  HIT:     134657  MISS:      32998
LLC WRITEBACK ACCESS:     166859  HIT:     166683  MISS:        176
LLC TRANSLATION ACCESS:          0  HIT:          0  MISS:          0
LLC PREFETCH  REQUESTED:          0  ISSUED:          0  USEFUL:          0  USELESS:          0
LLC AVERAGE MISS LATENCY: 1008.52 cycles
Printing the final status 

DRAM Statistics
 CHANNEL 0
 RQ ROW_BUFFER_HIT:       6649  ROW_BUFFER_MISS:     194395
 DBUS AVG_CONGESTED_CYCLE:    3.96883
 WQ ROW_BUFFER_HIT:      16964  ROW_BUFFER_MISS:     149344  FULL:          0


CPU 0 Branch Prediction Accuracy: 80.5169% MPKI: 28.2727 Average ROB Occupancy at Mispredict: 47.3669
Branch type MPKI
BRANCH_DIRECT_JUMP: 0
BRANCH_INDIRECT: 0
BRANCH_CONDITIONAL: 28.2727
BRANCH_DIRECT_CALL: 0
BRANCH_INDIRECT_CALL: 0
BRANCH_RETURN: 0

***************** Done with 603.bwaves_s-3699B.champsimtrace.xz using ppf-spp-dev-3, on Wed Apr 20 02:22:47 CDT 2022 ******************
