Started running file 644.nab_s-5853B.champsimtrace.xz at time Wed Apr 20 03:31:44 CDT 2022 with prefetcher ppf-spp-dev-3

*** ChampSim Multicore Out-of-Order Simulator ***

Warmup Instructions: 200000000
Simulation Instructions: 1000000000
Number of CPUs: 1
Off-chip DRAM Size: 4 GiB Channels: 1 Width: 64-bit Data Rate: 3200 MT/s

VirtualMemory physical capacity: 8588881920 num_ppages: 2096895
VirtualMemory page size: 4096 log2_page_size: 12

CPU 0 runs /home/faculty/p/pgratz/dpc3_traces/644.nab_s-5853B.champsimtrace.xz
CPU 0 Bimodal branch predictor
Basic BTB sets: 1024 ways: 8 indirect buffer size: 4096 RAS size: 64
cpu0_L2C PPF SPP DEV Prefetcher
Heartbeat CPU 0 instructions: 10000001 cycles: 2500088 heartbeat IPC: 3.99986 cumulative IPC: 3.99986 (Simulation time: 0 hr 0 min 32 sec) 
Heartbeat CPU 0 instructions: 20000001 cycles: 5000088 heartbeat IPC: 4 cumulative IPC: 3.99993 (Simulation time: 0 hr 1 min 4 sec) 
Heartbeat CPU 0 instructions: 30000001 cycles: 7500088 heartbeat IPC: 4 cumulative IPC: 3.99995 (Simulation time: 0 hr 1 min 36 sec) 
Heartbeat CPU 0 instructions: 40000001 cycles: 10000088 heartbeat IPC: 4 cumulative IPC: 3.99996 (Simulation time: 0 hr 2 min 8 sec) 
Heartbeat CPU 0 instructions: 50000001 cycles: 12500088 heartbeat IPC: 4 cumulative IPC: 3.99997 (Simulation time: 0 hr 2 min 39 sec) 
Heartbeat CPU 0 instructions: 60000001 cycles: 15000088 heartbeat IPC: 4 cumulative IPC: 3.99998 (Simulation time: 0 hr 3 min 11 sec) 
Heartbeat CPU 0 instructions: 70000001 cycles: 17500088 heartbeat IPC: 4 cumulative IPC: 3.99998 (Simulation time: 0 hr 3 min 43 sec) 
Heartbeat CPU 0 instructions: 80000001 cycles: 20000088 heartbeat IPC: 4 cumulative IPC: 3.99998 (Simulation time: 0 hr 4 min 15 sec) 
Heartbeat CPU 0 instructions: 90000001 cycles: 22500088 heartbeat IPC: 4 cumulative IPC: 3.99998 (Simulation time: 0 hr 4 min 47 sec) 
Heartbeat CPU 0 instructions: 100000001 cycles: 25000088 heartbeat IPC: 4 cumulative IPC: 3.99999 (Simulation time: 0 hr 5 min 19 sec) 
Heartbeat CPU 0 instructions: 110000001 cycles: 27500088 heartbeat IPC: 4 cumulative IPC: 3.99999 (Simulation time: 0 hr 5 min 51 sec) 
Heartbeat CPU 0 instructions: 120000001 cycles: 30000088 heartbeat IPC: 4 cumulative IPC: 3.99999 (Simulation time: 0 hr 6 min 23 sec) 
Heartbeat CPU 0 instructions: 130000001 cycles: 32500088 heartbeat IPC: 4 cumulative IPC: 3.99999 (Simulation time: 0 hr 6 min 55 sec) 
Heartbeat CPU 0 instructions: 140000001 cycles: 35000088 heartbeat IPC: 4 cumulative IPC: 3.99999 (Simulation time: 0 hr 7 min 27 sec) 
Heartbeat CPU 0 instructions: 150000001 cycles: 37500088 heartbeat IPC: 4 cumulative IPC: 3.99999 (Simulation time: 0 hr 7 min 59 sec) 
Heartbeat CPU 0 instructions: 160000001 cycles: 40000088 heartbeat IPC: 4 cumulative IPC: 3.99999 (Simulation time: 0 hr 8 min 31 sec) 
Heartbeat CPU 0 instructions: 170000001 cycles: 42500088 heartbeat IPC: 4 cumulative IPC: 3.99999 (Simulation time: 0 hr 9 min 3 sec) 
Heartbeat CPU 0 instructions: 180000001 cycles: 45000088 heartbeat IPC: 4 cumulative IPC: 3.99999 (Simulation time: 0 hr 9 min 35 sec) 
Heartbeat CPU 0 instructions: 190000001 cycles: 47500088 heartbeat IPC: 4 cumulative IPC: 3.99999 (Simulation time: 0 hr 10 min 7 sec) 
Heartbeat CPU 0 instructions: 200000001 cycles: 50000088 heartbeat IPC: 4 cumulative IPC: 3.99999 (Simulation time: 0 hr 10 min 39 sec) 

Warmup complete CPU 0 instructions: 200000001 cycles: 50000088 (Simulation time: 0 hr 10 min 39 sec) 

Heartbeat CPU 0 instructions: 210000002 cycles: 57841054 heartbeat IPC: 1.27535 cumulative IPC: 1.27535 (Simulation time: 0 hr 11 min 15 sec) 
Heartbeat CPU 0 instructions: 220000003 cycles: 65693216 heartbeat IPC: 1.27353 cumulative IPC: 1.27444 (Simulation time: 0 hr 11 min 51 sec) 
Heartbeat CPU 0 instructions: 230000001 cycles: 73530893 heartbeat IPC: 1.27589 cumulative IPC: 1.27492 (Simulation time: 0 hr 12 min 27 sec) 
Heartbeat CPU 0 instructions: 240000001 cycles: 81384665 heartbeat IPC: 1.27327 cumulative IPC: 1.27451 (Simulation time: 0 hr 13 min 3 sec) 
Heartbeat CPU 0 instructions: 250000003 cycles: 89285385 heartbeat IPC: 1.26571 cumulative IPC: 1.27274 (Simulation time: 0 hr 13 min 40 sec) 
Heartbeat CPU 0 instructions: 260000000 cycles: 97157490 heartbeat IPC: 1.27031 cumulative IPC: 1.27233 (Simulation time: 0 hr 14 min 16 sec) 
Heartbeat CPU 0 instructions: 270000002 cycles: 104997193 heartbeat IPC: 1.27556 cumulative IPC: 1.27279 (Simulation time: 0 hr 14 min 52 sec) 
Heartbeat CPU 0 instructions: 280000002 cycles: 112821060 heartbeat IPC: 1.27814 cumulative IPC: 1.27346 (Simulation time: 0 hr 15 min 27 sec) 
Heartbeat CPU 0 instructions: 290000000 cycles: 120644100 heartbeat IPC: 1.27828 cumulative IPC: 1.27399 (Simulation time: 0 hr 16 min 3 sec) 
Heartbeat CPU 0 instructions: 300000000 cycles: 128454152 heartbeat IPC: 1.2804 cumulative IPC: 1.27463 (Simulation time: 0 hr 16 min 39 sec) 
Heartbeat CPU 0 instructions: 310000004 cycles: 136275525 heartbeat IPC: 1.27855 cumulative IPC: 1.27499 (Simulation time: 0 hr 17 min 14 sec) 
Heartbeat CPU 0 instructions: 320000001 cycles: 144098765 heartbeat IPC: 1.27824 cumulative IPC: 1.27526 (Simulation time: 0 hr 17 min 50 sec) 
Heartbeat CPU 0 instructions: 330000002 cycles: 151960496 heartbeat IPC: 1.27198 cumulative IPC: 1.275 (Simulation time: 0 hr 18 min 26 sec) 
Heartbeat CPU 0 instructions: 340000000 cycles: 159861428 heartbeat IPC: 1.26567 cumulative IPC: 1.27433 (Simulation time: 0 hr 19 min 2 sec) 
Heartbeat CPU 0 instructions: 350000000 cycles: 167754468 heartbeat IPC: 1.26694 cumulative IPC: 1.27384 (Simulation time: 0 hr 19 min 38 sec) 
Heartbeat CPU 0 instructions: 360000003 cycles: 175645187 heartbeat IPC: 1.26731 cumulative IPC: 1.27343 (Simulation time: 0 hr 20 min 14 sec) 
Heartbeat CPU 0 instructions: 370000003 cycles: 183514872 heartbeat IPC: 1.2707 cumulative IPC: 1.27327 (Simulation time: 0 hr 20 min 50 sec) 
Heartbeat CPU 0 instructions: 380000004 cycles: 191405600 heartbeat IPC: 1.26731 cumulative IPC: 1.27293 (Simulation time: 0 hr 21 min 27 sec) 
Heartbeat CPU 0 instructions: 390000004 cycles: 199263202 heartbeat IPC: 1.27265 cumulative IPC: 1.27292 (Simulation time: 0 hr 22 min 3 sec) 
Heartbeat CPU 0 instructions: 400000002 cycles: 207118838 heartbeat IPC: 1.27297 cumulative IPC: 1.27292 (Simulation time: 0 hr 22 min 39 sec) 
Heartbeat CPU 0 instructions: 410000003 cycles: 214962003 heartbeat IPC: 1.275 cumulative IPC: 1.27302 (Simulation time: 0 hr 23 min 15 sec) 
Heartbeat CPU 0 instructions: 420000000 cycles: 222812610 heartbeat IPC: 1.27379 cumulative IPC: 1.27306 (Simulation time: 0 hr 23 min 51 sec) 
Heartbeat CPU 0 instructions: 430000000 cycles: 230688886 heartbeat IPC: 1.26964 cumulative IPC: 1.27291 (Simulation time: 0 hr 24 min 27 sec) 
Heartbeat CPU 0 instructions: 440000002 cycles: 238605842 heartbeat IPC: 1.26311 cumulative IPC: 1.2725 (Simulation time: 0 hr 25 min 3 sec) 
Heartbeat CPU 0 instructions: 450000004 cycles: 246528311 heartbeat IPC: 1.26223 cumulative IPC: 1.27208 (Simulation time: 0 hr 25 min 39 sec) 
Heartbeat CPU 0 instructions: 460000003 cycles: 254460258 heartbeat IPC: 1.26072 cumulative IPC: 1.27164 (Simulation time: 0 hr 26 min 16 sec) 
Heartbeat CPU 0 instructions: 470000003 cycles: 262451712 heartbeat IPC: 1.25134 cumulative IPC: 1.27088 (Simulation time: 0 hr 26 min 52 sec) 
Heartbeat CPU 0 instructions: 480000001 cycles: 270434871 heartbeat IPC: 1.25264 cumulative IPC: 1.27022 (Simulation time: 0 hr 27 min 28 sec) 
Heartbeat CPU 0 instructions: 490000003 cycles: 278411704 heartbeat IPC: 1.25363 cumulative IPC: 1.26964 (Simulation time: 0 hr 28 min 5 sec) 
Heartbeat CPU 0 instructions: 500000000 cycles: 286437153 heartbeat IPC: 1.24604 cumulative IPC: 1.26884 (Simulation time: 0 hr 28 min 41 sec) 
Heartbeat CPU 0 instructions: 510000000 cycles: 294474679 heartbeat IPC: 1.24416 cumulative IPC: 1.26803 (Simulation time: 0 hr 29 min 17 sec) 
Heartbeat CPU 0 instructions: 520000000 cycles: 302515558 heartbeat IPC: 1.24365 cumulative IPC: 1.26725 (Simulation time: 0 hr 29 min 54 sec) 
Heartbeat CPU 0 instructions: 530000003 cycles: 310530943 heartbeat IPC: 1.2476 cumulative IPC: 1.26664 (Simulation time: 0 hr 30 min 30 sec) 
Heartbeat CPU 0 instructions: 540000003 cycles: 318479030 heartbeat IPC: 1.25816 cumulative IPC: 1.26639 (Simulation time: 0 hr 31 min 7 sec) 
Heartbeat CPU 0 instructions: 550000002 cycles: 326419867 heartbeat IPC: 1.25931 cumulative IPC: 1.26619 (Simulation time: 0 hr 31 min 43 sec) 
Heartbeat CPU 0 instructions: 560000001 cycles: 334321881 heartbeat IPC: 1.2655 cumulative IPC: 1.26617 (Simulation time: 0 hr 32 min 19 sec) 
Heartbeat CPU 0 instructions: 570000002 cycles: 342255960 heartbeat IPC: 1.26039 cumulative IPC: 1.26601 (Simulation time: 0 hr 32 min 55 sec) 
Heartbeat CPU 0 instructions: 580000000 cycles: 350156773 heartbeat IPC: 1.26569 cumulative IPC: 1.26601 (Simulation time: 0 hr 33 min 32 sec) 
Heartbeat CPU 0 instructions: 590000001 cycles: 358124585 heartbeat IPC: 1.25505 cumulative IPC: 1.26572 (Simulation time: 0 hr 34 min 8 sec) 
Heartbeat CPU 0 instructions: 600000003 cycles: 366037143 heartbeat IPC: 1.26381 cumulative IPC: 1.26567 (Simulation time: 0 hr 34 min 44 sec) 
Heartbeat CPU 0 instructions: 610000001 cycles: 373977290 heartbeat IPC: 1.25942 cumulative IPC: 1.26552 (Simulation time: 0 hr 35 min 21 sec) 
Heartbeat CPU 0 instructions: 620000000 cycles: 381887402 heartbeat IPC: 1.2642 cumulative IPC: 1.26549 (Simulation time: 0 hr 35 min 57 sec) 
Heartbeat CPU 0 instructions: 630000002 cycles: 389844532 heartbeat IPC: 1.25673 cumulative IPC: 1.26528 (Simulation time: 0 hr 36 min 33 sec) 
Heartbeat CPU 0 instructions: 640000000 cycles: 397790996 heartbeat IPC: 1.25842 cumulative IPC: 1.26513 (Simulation time: 0 hr 37 min 9 sec) 
Heartbeat CPU 0 instructions: 650000002 cycles: 405738243 heartbeat IPC: 1.2583 cumulative IPC: 1.26498 (Simulation time: 0 hr 37 min 45 sec) 
Heartbeat CPU 0 instructions: 660000000 cycles: 413721367 heartbeat IPC: 1.25264 cumulative IPC: 1.2647 (Simulation time: 0 hr 38 min 22 sec) 
Heartbeat CPU 0 instructions: 670000004 cycles: 421746716 heartbeat IPC: 1.24605 cumulative IPC: 1.2643 (Simulation time: 0 hr 38 min 58 sec) 
Heartbeat CPU 0 instructions: 680000000 cycles: 429768698 heartbeat IPC: 1.24657 cumulative IPC: 1.26393 (Simulation time: 0 hr 39 min 35 sec) 
Heartbeat CPU 0 instructions: 690000001 cycles: 437752799 heartbeat IPC: 1.25249 cumulative IPC: 1.26369 (Simulation time: 0 hr 40 min 11 sec) 
Heartbeat CPU 0 instructions: 700000004 cycles: 445712570 heartbeat IPC: 1.25632 cumulative IPC: 1.26354 (Simulation time: 0 hr 40 min 47 sec) 
Heartbeat CPU 0 instructions: 710000001 cycles: 453668334 heartbeat IPC: 1.25695 cumulative IPC: 1.26341 (Simulation time: 0 hr 41 min 23 sec) 
Heartbeat CPU 0 instructions: 720000003 cycles: 461756273 heartbeat IPC: 1.23641 cumulative IPC: 1.26288 (Simulation time: 0 hr 42 min 0 sec) 
Heartbeat CPU 0 instructions: 730000001 cycles: 469816901 heartbeat IPC: 1.2406 cumulative IPC: 1.26246 (Simulation time: 0 hr 42 min 36 sec) 
Heartbeat CPU 0 instructions: 740000002 cycles: 477784876 heartbeat IPC: 1.25502 cumulative IPC: 1.26232 (Simulation time: 0 hr 43 min 13 sec) 
Heartbeat CPU 0 instructions: 750000003 cycles: 485789126 heartbeat IPC: 1.24934 cumulative IPC: 1.26208 (Simulation time: 0 hr 43 min 49 sec) 
Heartbeat CPU 0 instructions: 760000001 cycles: 493728908 heartbeat IPC: 1.25948 cumulative IPC: 1.26203 (Simulation time: 0 hr 44 min 25 sec) 
Heartbeat CPU 0 instructions: 770000001 cycles: 501661696 heartbeat IPC: 1.26059 cumulative IPC: 1.26201 (Simulation time: 0 hr 45 min 2 sec) 
Heartbeat CPU 0 instructions: 780000002 cycles: 509604381 heartbeat IPC: 1.25902 cumulative IPC: 1.26196 (Simulation time: 0 hr 45 min 38 sec) 
Heartbeat CPU 0 instructions: 790000001 cycles: 517466877 heartbeat IPC: 1.27186 cumulative IPC: 1.26212 (Simulation time: 0 hr 46 min 14 sec) 
Heartbeat CPU 0 instructions: 800000000 cycles: 525353391 heartbeat IPC: 1.26799 cumulative IPC: 1.26222 (Simulation time: 0 hr 46 min 50 sec) 
Heartbeat CPU 0 instructions: 810000004 cycles: 533236343 heartbeat IPC: 1.26856 cumulative IPC: 1.26232 (Simulation time: 0 hr 47 min 26 sec) 
Heartbeat CPU 0 instructions: 820000000 cycles: 541076920 heartbeat IPC: 1.27542 cumulative IPC: 1.26253 (Simulation time: 0 hr 48 min 2 sec) 
Heartbeat CPU 0 instructions: 830000001 cycles: 548920651 heartbeat IPC: 1.2749 cumulative IPC: 1.26273 (Simulation time: 0 hr 48 min 38 sec) 
Heartbeat CPU 0 instructions: 840000000 cycles: 556768837 heartbeat IPC: 1.27418 cumulative IPC: 1.2629 (Simulation time: 0 hr 49 min 14 sec) 
Heartbeat CPU 0 instructions: 850000003 cycles: 564630064 heartbeat IPC: 1.27207 cumulative IPC: 1.26304 (Simulation time: 0 hr 49 min 50 sec) 
Heartbeat CPU 0 instructions: 860000004 cycles: 572503997 heartbeat IPC: 1.27001 cumulative IPC: 1.26315 (Simulation time: 0 hr 50 min 26 sec) 
Heartbeat CPU 0 instructions: 870000004 cycles: 580361017 heartbeat IPC: 1.27275 cumulative IPC: 1.26329 (Simulation time: 0 hr 51 min 2 sec) 
Heartbeat CPU 0 instructions: 880000000 cycles: 588243771 heartbeat IPC: 1.26859 cumulative IPC: 1.26337 (Simulation time: 0 hr 51 min 39 sec) 
Heartbeat CPU 0 instructions: 890000000 cycles: 596097009 heartbeat IPC: 1.27336 cumulative IPC: 1.26351 (Simulation time: 0 hr 52 min 15 sec) 
Heartbeat CPU 0 instructions: 900000000 cycles: 603928969 heartbeat IPC: 1.27682 cumulative IPC: 1.2637 (Simulation time: 0 hr 52 min 51 sec) 
Heartbeat CPU 0 instructions: 910000001 cycles: 611741431 heartbeat IPC: 1.28001 cumulative IPC: 1.26393 (Simulation time: 0 hr 53 min 26 sec) 
Heartbeat CPU 0 instructions: 920000004 cycles: 619586264 heartbeat IPC: 1.27472 cumulative IPC: 1.26408 (Simulation time: 0 hr 54 min 2 sec) 
Heartbeat CPU 0 instructions: 930000000 cycles: 627519688 heartbeat IPC: 1.26049 cumulative IPC: 1.26403 (Simulation time: 0 hr 54 min 37 sec) 
Heartbeat CPU 0 instructions: 940000000 cycles: 635528066 heartbeat IPC: 1.24869 cumulative IPC: 1.26382 (Simulation time: 0 hr 55 min 14 sec) 
Heartbeat CPU 0 instructions: 950000000 cycles: 643528363 heartbeat IPC: 1.24995 cumulative IPC: 1.26363 (Simulation time: 0 hr 55 min 50 sec) 
Heartbeat CPU 0 instructions: 960000002 cycles: 651654851 heartbeat IPC: 1.23054 cumulative IPC: 1.26318 (Simulation time: 0 hr 56 min 27 sec) 
Heartbeat CPU 0 instructions: 970000000 cycles: 659770679 heartbeat IPC: 1.23216 cumulative IPC: 1.26277 (Simulation time: 0 hr 57 min 4 sec) 
Heartbeat CPU 0 instructions: 980000000 cycles: 667854866 heartbeat IPC: 1.23698 cumulative IPC: 1.26243 (Simulation time: 0 hr 57 min 40 sec) 
Heartbeat CPU 0 instructions: 990000004 cycles: 675928862 heartbeat IPC: 1.23854 cumulative IPC: 1.26212 (Simulation time: 0 hr 58 min 17 sec) 
Heartbeat CPU 0 instructions: 1000000001 cycles: 683998662 heartbeat IPC: 1.23919 cumulative IPC: 1.26183 (Simulation time: 0 hr 58 min 53 sec) 
Heartbeat CPU 0 instructions: 1010000002 cycles: 692169406 heartbeat IPC: 1.22388 cumulative IPC: 1.26135 (Simulation time: 0 hr 59 min 30 sec) 
Heartbeat CPU 0 instructions: 1020000002 cycles: 700422864 heartbeat IPC: 1.21161 cumulative IPC: 1.26072 (Simulation time: 1 hr 0 min 7 sec) 
Heartbeat CPU 0 instructions: 1030000001 cycles: 708706088 heartbeat IPC: 1.20726 cumulative IPC: 1.26005 (Simulation time: 1 hr 0 min 44 sec) 
Heartbeat CPU 0 instructions: 1040000002 cycles: 717025294 heartbeat IPC: 1.20204 cumulative IPC: 1.25932 (Simulation time: 1 hr 1 min 22 sec) 
Heartbeat CPU 0 instructions: 1050000001 cycles: 725412292 heartbeat IPC: 1.19232 cumulative IPC: 1.25849 (Simulation time: 1 hr 1 min 59 sec) 
Heartbeat CPU 0 instructions: 1060000002 cycles: 733779962 heartbeat IPC: 1.19508 cumulative IPC: 1.25771 (Simulation time: 1 hr 2 min 36 sec) 
Heartbeat CPU 0 instructions: 1070000000 cycles: 742156811 heartbeat IPC: 1.19377 cumulative IPC: 1.25694 (Simulation time: 1 hr 3 min 13 sec) 
Heartbeat CPU 0 instructions: 1080000000 cycles: 750524162 heartbeat IPC: 1.19512 cumulative IPC: 1.2562 (Simulation time: 1 hr 3 min 50 sec) 
Heartbeat CPU 0 instructions: 1090000000 cycles: 758942756 heartbeat IPC: 1.18785 cumulative IPC: 1.25539 (Simulation time: 1 hr 4 min 28 sec) 
Heartbeat CPU 0 instructions: 1100000000 cycles: 767341190 heartbeat IPC: 1.1907 cumulative IPC: 1.25463 (Simulation time: 1 hr 5 min 5 sec) 
Heartbeat CPU 0 instructions: 1110000002 cycles: 775677621 heartbeat IPC: 1.19955 cumulative IPC: 1.254 (Simulation time: 1 hr 5 min 42 sec) 
Heartbeat CPU 0 instructions: 1120000003 cycles: 783937646 heartbeat IPC: 1.21065 cumulative IPC: 1.25351 (Simulation time: 1 hr 6 min 19 sec) 
Heartbeat CPU 0 instructions: 1130000002 cycles: 791899179 heartbeat IPC: 1.25604 cumulative IPC: 1.25354 (Simulation time: 1 hr 6 min 55 sec) 
Heartbeat CPU 0 instructions: 1140000000 cycles: 799839869 heartbeat IPC: 1.25934 cumulative IPC: 1.2536 (Simulation time: 1 hr 7 min 30 sec) 
Heartbeat CPU 0 instructions: 1150000001 cycles: 807791114 heartbeat IPC: 1.25766 cumulative IPC: 1.25364 (Simulation time: 1 hr 8 min 6 sec) 
Heartbeat CPU 0 instructions: 1160000000 cycles: 815733470 heartbeat IPC: 1.25907 cumulative IPC: 1.2537 (Simulation time: 1 hr 8 min 42 sec) 
Heartbeat CPU 0 instructions: 1170000001 cycles: 823790337 heartbeat IPC: 1.24118 cumulative IPC: 1.25357 (Simulation time: 1 hr 9 min 18 sec) 
Heartbeat CPU 0 instructions: 1180000002 cycles: 831963846 heartbeat IPC: 1.22346 cumulative IPC: 1.25326 (Simulation time: 1 hr 9 min 55 sec) 
Heartbeat CPU 0 instructions: 1190000001 cycles: 840036624 heartbeat IPC: 1.23873 cumulative IPC: 1.25311 (Simulation time: 1 hr 10 min 31 sec) 
Heartbeat CPU 0 instructions: 1200000001 cycles: 848121010 heartbeat IPC: 1.23695 cumulative IPC: 1.25294 (Simulation time: 1 hr 11 min 8 sec) 
Finished CPU 0 instructions: 1000000000 cycles: 798120922 cumulative IPC: 1.25294 (Simulation time: 1 hr 11 min 8 sec) 

ChampSim completed all CPUs

Region of Interest Statistics

CPU 0 cumulative IPC: 1.25294 instructions: 1000000000 cycles: 798120922
cpu0_DTLB TOTAL     ACCESS:  227781698  HIT:  225559381  MISS:    2222317
cpu0_DTLB LOAD      ACCESS:  175942996  HIT:  173737177  MISS:    2205819
cpu0_DTLB RFO       ACCESS:   51838702  HIT:   51822204  MISS:      16498
cpu0_DTLB PREFETCH  ACCESS:          0  HIT:          0  MISS:          0
cpu0_DTLB WRITEBACK ACCESS:          0  HIT:          0  MISS:          0
cpu0_DTLB TRANSLATION ACCESS:          0  HIT:          0  MISS:          0
cpu0_DTLB PREFETCH  REQUESTED:          0  ISSUED:          0  USEFUL:          0  USELESS:          0
cpu0_DTLB AVERAGE MISS LATENCY: 11.7378 cycles
cpu0_ITLB TOTAL     ACCESS:  107763493  HIT:  107763493  MISS:          0
cpu0_ITLB LOAD      ACCESS:  107763493  HIT:  107763493  MISS:          0
cpu0_ITLB RFO       ACCESS:          0  HIT:          0  MISS:          0
cpu0_ITLB PREFETCH  ACCESS:          0  HIT:          0  MISS:          0
cpu0_ITLB WRITEBACK ACCESS:          0  HIT:          0  MISS:          0
cpu0_ITLB TRANSLATION ACCESS:          0  HIT:          0  MISS:          0
cpu0_ITLB PREFETCH  REQUESTED:          0  ISSUED:          0  USEFUL:          0  USELESS:          0
cpu0_ITLB AVERAGE MISS LATENCY: -nan cycles
cpu0_L1I TOTAL     ACCESS:      21977  HIT:      21975  MISS:          2
cpu0_L1I LOAD      ACCESS:      21977  HIT:      21975  MISS:          2
cpu0_L1I RFO       ACCESS:          0  HIT:          0  MISS:          0
cpu0_L1I PREFETCH  ACCESS:          0  HIT:          0  MISS:          0
cpu0_L1I WRITEBACK ACCESS:          0  HIT:          0  MISS:          0
cpu0_L1I TRANSLATION ACCESS:          0  HIT:          0  MISS:          0
cpu0_L1I PREFETCH  REQUESTED:          0  ISSUED:          0  USEFUL:          0  USELESS:          0
cpu0_L1I AVERAGE MISS LATENCY: 194.5 cycles
cpu0_STLB TOTAL     ACCESS:    2222317  HIT:    2214678  MISS:       7639
cpu0_STLB LOAD      ACCESS:    2205819  HIT:    2198180  MISS:       7639
cpu0_STLB RFO       ACCESS:      16498  HIT:      16498  MISS:          0
cpu0_STLB PREFETCH  ACCESS:          0  HIT:          0  MISS:          0
cpu0_STLB WRITEBACK ACCESS:          0  HIT:          0  MISS:          0
cpu0_STLB TRANSLATION ACCESS:          0  HIT:          0  MISS:          0
cpu0_STLB PREFETCH  REQUESTED:          0  ISSUED:          0  USEFUL:          0  USELESS:          0
cpu0_STLB AVERAGE MISS LATENCY: 214.423 cycles
cpu0_L1D TOTAL     ACCESS:  321247620  HIT:  317330576  MISS:    3917044
cpu0_L1D LOAD      ACCESS:  210622687  HIT:  206715477  MISS:    3907210
cpu0_L1D RFO       ACCESS:  110617299  HIT:  110611063  MISS:       6236
cpu0_L1D PREFETCH  ACCESS:          0  HIT:          0  MISS:          0
cpu0_L1D WRITEBACK ACCESS:          0  HIT:          0  MISS:          0
cpu0_L1D TRANSLATION ACCESS:       7634  HIT:       4036  MISS:       3598
cpu0_L1D PREFETCH  REQUESTED:          0  ISSUED:          0  USEFUL:          0  USELESS:          0
cpu0_L1D AVERAGE MISS LATENCY: 11.5715 cycles
cpu0_L2C TOTAL     ACCESS:   16698171  HIT:   16481943  MISS:     216228
cpu0_L2C LOAD      ACCESS:    3907202  HIT:    3891745  MISS:      15457
cpu0_L2C RFO       ACCESS:       6235  HIT:       5701  MISS:        534
cpu0_L2C PREFETCH  ACCESS:   11441146  HIT:   11241036  MISS:     200110
cpu0_L2C WRITEBACK ACCESS:    1339990  HIT:    1339973  MISS:         17
cpu0_L2C TRANSLATION ACCESS:       3598  HIT:       3488  MISS:        110
cpu0_L2C PREFETCH  REQUESTED:   12534594  ISSUED:   12205058  USEFUL:     185588  USELESS:      14432
cpu0_L2C AVERAGE MISS LATENCY: 45.0876 cycles
LLC TOTAL     ACCESS:     986616  HIT:     757258  MISS:     229358
LLC LOAD      ACCESS:      15452  HIT:       3741  MISS:      11711
LLC RFO       ACCESS:        534  HIT:        494  MISS:         40
LLC PREFETCH  ACCESS:     963437  HIT:     748607  MISS:     214830
LLC WRITEBACK ACCESS:       7083  HIT:       4360  MISS:       2723
LLC TRANSLATION ACCESS:        110  HIT:         56  MISS:         54
LLC PREFETCH  REQUESTED:          0  ISSUED:          0  USEFUL:          0  USELESS:          0
LLC AVERAGE MISS LATENCY: 108.955 cycles
Printing the final status 

DRAM Statistics
 CHANNEL 0
 RQ ROW_BUFFER_HIT:     142696  ROW_BUFFER_MISS:      83939
 DBUS AVG_CONGESTED_CYCLE:    3.95537
 WQ ROW_BUFFER_HIT:         67  ROW_BUFFER_MISS:       4774  FULL:          0


CPU 0 Branch Prediction Accuracy: 94.2299% MPKI: 5.58664 Average ROB Occupancy at Mispredict: 134.564
Branch type MPKI
BRANCH_DIRECT_JUMP: 2e-06
BRANCH_INDIRECT: 0
BRANCH_CONDITIONAL: 5.58664
BRANCH_DIRECT_CALL: 1e-06
BRANCH_INDIRECT_CALL: 0
BRANCH_RETURN: 1e-06

***************** Done with 644.nab_s-5853B.champsimtrace.xz using ppf-spp-dev-3, on Wed Apr 20 04:42:52 CDT 2022 ******************
