Started running file 657.xz_s-3167B.champsimtrace.xz at time Tue Apr 19 23:39:02 CDT 2022 with prefetcher ppf-spp-dev-2

*** ChampSim Multicore Out-of-Order Simulator ***

Warmup Instructions: 200000000
Simulation Instructions: 1000000000
Number of CPUs: 1
Off-chip DRAM Size: 4 GiB Channels: 1 Width: 64-bit Data Rate: 3200 MT/s

VirtualMemory physical capacity: 8588881920 num_ppages: 2096895
VirtualMemory page size: 4096 log2_page_size: 12

CPU 0 runs /home/faculty/p/pgratz/dpc3_traces/657.xz_s-3167B.champsimtrace.xz
CPU 0 Bimodal branch predictor
Basic BTB sets: 1024 ways: 8 indirect buffer size: 4096 RAS size: 64
cpu0_L2C PPF SPP DEV Prefetcher
Heartbeat CPU 0 instructions: 10000000 cycles: 2511755 heartbeat IPC: 3.98128 cumulative IPC: 3.98128 (Simulation time: 0 hr 0 min 30 sec) 
Heartbeat CPU 0 instructions: 20000001 cycles: 5023710 heartbeat IPC: 3.98096 cumulative IPC: 3.98112 (Simulation time: 0 hr 0 min 59 sec) 
Heartbeat CPU 0 instructions: 30000001 cycles: 7529677 heartbeat IPC: 3.99048 cumulative IPC: 3.98423 (Simulation time: 0 hr 1 min 29 sec) 
Heartbeat CPU 0 instructions: 40000002 cycles: 10035652 heartbeat IPC: 3.99046 cumulative IPC: 3.98579 (Simulation time: 0 hr 1 min 59 sec) 
Heartbeat CPU 0 instructions: 50000002 cycles: 12541668 heartbeat IPC: 3.9904 cumulative IPC: 3.98671 (Simulation time: 0 hr 2 min 28 sec) 
Heartbeat CPU 0 instructions: 60000003 cycles: 15050693 heartbeat IPC: 3.98561 cumulative IPC: 3.98653 (Simulation time: 0 hr 2 min 58 sec) 
Heartbeat CPU 0 instructions: 70000002 cycles: 17556692 heartbeat IPC: 3.99042 cumulative IPC: 3.98708 (Simulation time: 0 hr 3 min 27 sec) 
Heartbeat CPU 0 instructions: 80000000 cycles: 20065668 heartbeat IPC: 3.98569 cumulative IPC: 3.98691 (Simulation time: 0 hr 3 min 56 sec) 
Heartbeat CPU 0 instructions: 90000001 cycles: 22571646 heartbeat IPC: 3.99046 cumulative IPC: 3.9873 (Simulation time: 0 hr 4 min 26 sec) 
Heartbeat CPU 0 instructions: 100000002 cycles: 25080606 heartbeat IPC: 3.98572 cumulative IPC: 3.98714 (Simulation time: 0 hr 4 min 56 sec) 
Heartbeat CPU 0 instructions: 110000002 cycles: 27589557 heartbeat IPC: 3.98573 cumulative IPC: 3.98702 (Simulation time: 0 hr 5 min 25 sec) 
Heartbeat CPU 0 instructions: 120000002 cycles: 30098664 heartbeat IPC: 3.98548 cumulative IPC: 3.98689 (Simulation time: 0 hr 5 min 55 sec) 
Heartbeat CPU 0 instructions: 130000001 cycles: 32607649 heartbeat IPC: 3.98568 cumulative IPC: 3.98679 (Simulation time: 0 hr 6 min 24 sec) 
Heartbeat CPU 0 instructions: 140000002 cycles: 35116716 heartbeat IPC: 3.98555 cumulative IPC: 3.98671 (Simulation time: 0 hr 6 min 54 sec) 
Heartbeat CPU 0 instructions: 150000001 cycles: 37625693 heartbeat IPC: 3.98569 cumulative IPC: 3.98664 (Simulation time: 0 hr 7 min 23 sec) 
Heartbeat CPU 0 instructions: 160000003 cycles: 40134851 heartbeat IPC: 3.9854 cumulative IPC: 3.98656 (Simulation time: 0 hr 7 min 53 sec) 
Heartbeat CPU 0 instructions: 170000001 cycles: 42644320 heartbeat IPC: 3.98491 cumulative IPC: 3.98646 (Simulation time: 0 hr 8 min 22 sec) 
Heartbeat CPU 0 instructions: 180000000 cycles: 45151080 heartbeat IPC: 3.98921 cumulative IPC: 3.98662 (Simulation time: 0 hr 8 min 52 sec) 
Heartbeat CPU 0 instructions: 190000000 cycles: 47657503 heartbeat IPC: 3.98975 cumulative IPC: 3.98678 (Simulation time: 0 hr 9 min 22 sec) 
Heartbeat CPU 0 instructions: 200000002 cycles: 50160508 heartbeat IPC: 3.9952 cumulative IPC: 3.9872 (Simulation time: 0 hr 9 min 51 sec) 

Warmup complete CPU 0 instructions: 200000002 cycles: 50160508 (Simulation time: 0 hr 9 min 51 sec) 

Heartbeat CPU 0 instructions: 210000000 cycles: 59182766 heartbeat IPC: 1.10837 cumulative IPC: 1.10837 (Simulation time: 0 hr 10 min 22 sec) 
Heartbeat CPU 0 instructions: 220000001 cycles: 67258716 heartbeat IPC: 1.23824 cumulative IPC: 1.16971 (Simulation time: 0 hr 10 min 52 sec) 
Heartbeat CPU 0 instructions: 230000000 cycles: 74286786 heartbeat IPC: 1.42287 cumulative IPC: 1.24346 (Simulation time: 0 hr 11 min 22 sec) 
Heartbeat CPU 0 instructions: 240000002 cycles: 81478544 heartbeat IPC: 1.39048 cumulative IPC: 1.27722 (Simulation time: 0 hr 11 min 52 sec) 
Heartbeat CPU 0 instructions: 250000000 cycles: 88356816 heartbeat IPC: 1.45385 cumulative IPC: 1.30903 (Simulation time: 0 hr 12 min 21 sec) 
Heartbeat CPU 0 instructions: 260000000 cycles: 94317946 heartbeat IPC: 1.67753 cumulative IPC: 1.35877 (Simulation time: 0 hr 12 min 49 sec) 
Heartbeat CPU 0 instructions: 270000000 cycles: 100063288 heartbeat IPC: 1.74054 cumulative IPC: 1.40273 (Simulation time: 0 hr 13 min 18 sec) 
Heartbeat CPU 0 instructions: 280000000 cycles: 108581823 heartbeat IPC: 1.17391 cumulative IPC: 1.36936 (Simulation time: 0 hr 13 min 49 sec) 
Heartbeat CPU 0 instructions: 290000001 cycles: 115630465 heartbeat IPC: 1.41871 cumulative IPC: 1.37468 (Simulation time: 0 hr 14 min 19 sec) 
Heartbeat CPU 0 instructions: 300000004 cycles: 121966015 heartbeat IPC: 1.5784 cumulative IPC: 1.39265 (Simulation time: 0 hr 14 min 48 sec) 
Heartbeat CPU 0 instructions: 310000003 cycles: 128654796 heartbeat IPC: 1.49504 cumulative IPC: 1.40138 (Simulation time: 0 hr 15 min 17 sec) 
Heartbeat CPU 0 instructions: 320000003 cycles: 136406134 heartbeat IPC: 1.2901 cumulative IPC: 1.39137 (Simulation time: 0 hr 15 min 46 sec) 
Heartbeat CPU 0 instructions: 330000003 cycles: 142642650 heartbeat IPC: 1.60346 cumulative IPC: 1.40568 (Simulation time: 0 hr 16 min 15 sec) 
Heartbeat CPU 0 instructions: 340000001 cycles: 150163824 heartbeat IPC: 1.32958 cumulative IPC: 1.39995 (Simulation time: 0 hr 16 min 45 sec) 
Heartbeat CPU 0 instructions: 350000002 cycles: 158112172 heartbeat IPC: 1.25812 cumulative IPC: 1.38951 (Simulation time: 0 hr 17 min 15 sec) 
Heartbeat CPU 0 instructions: 360000002 cycles: 166177747 heartbeat IPC: 1.23984 cumulative IPC: 1.37911 (Simulation time: 0 hr 17 min 45 sec) 
Heartbeat CPU 0 instructions: 370000001 cycles: 173442376 heartbeat IPC: 1.37653 cumulative IPC: 1.37895 (Simulation time: 0 hr 18 min 15 sec) 
Heartbeat CPU 0 instructions: 380000001 cycles: 180278598 heartbeat IPC: 1.4628 cumulative IPC: 1.38336 (Simulation time: 0 hr 18 min 44 sec) 
Heartbeat CPU 0 instructions: 390000000 cycles: 188549850 heartbeat IPC: 1.20901 cumulative IPC: 1.37294 (Simulation time: 0 hr 19 min 15 sec) 
Heartbeat CPU 0 instructions: 400000001 cycles: 196371868 heartbeat IPC: 1.27844 cumulative IPC: 1.36788 (Simulation time: 0 hr 19 min 45 sec) 
Heartbeat CPU 0 instructions: 410000004 cycles: 204470665 heartbeat IPC: 1.23475 cumulative IPC: 1.3609 (Simulation time: 0 hr 20 min 16 sec) 
Heartbeat CPU 0 instructions: 420000000 cycles: 212778458 heartbeat IPC: 1.20369 cumulative IPC: 1.35286 (Simulation time: 0 hr 20 min 46 sec) 
Heartbeat CPU 0 instructions: 430000004 cycles: 220609958 heartbeat IPC: 1.2769 cumulative IPC: 1.34937 (Simulation time: 0 hr 21 min 16 sec) 
Heartbeat CPU 0 instructions: 440000002 cycles: 228534164 heartbeat IPC: 1.26196 cumulative IPC: 1.34549 (Simulation time: 0 hr 21 min 45 sec) 
Heartbeat CPU 0 instructions: 450000003 cycles: 236300366 heartbeat IPC: 1.28763 cumulative IPC: 1.34308 (Simulation time: 0 hr 22 min 15 sec) 
Heartbeat CPU 0 instructions: 460000000 cycles: 244014240 heartbeat IPC: 1.29637 cumulative IPC: 1.34122 (Simulation time: 0 hr 22 min 45 sec) 
Heartbeat CPU 0 instructions: 470000000 cycles: 251511833 heartbeat IPC: 1.33376 cumulative IPC: 1.34094 (Simulation time: 0 hr 23 min 14 sec) 
Heartbeat CPU 0 instructions: 480000002 cycles: 258275982 heartbeat IPC: 1.47838 cumulative IPC: 1.34541 (Simulation time: 0 hr 23 min 44 sec) 
Heartbeat CPU 0 instructions: 490000003 cycles: 264870645 heartbeat IPC: 1.51638 cumulative IPC: 1.35066 (Simulation time: 0 hr 24 min 13 sec) 
Heartbeat CPU 0 instructions: 500000004 cycles: 271975318 heartbeat IPC: 1.40752 cumulative IPC: 1.35248 (Simulation time: 0 hr 24 min 43 sec) 
Heartbeat CPU 0 instructions: 510000000 cycles: 285700442 heartbeat IPC: 0.728591 cumulative IPC: 1.31613 (Simulation time: 0 hr 26 min 7 sec) 
Heartbeat CPU 0 instructions: 520000002 cycles: 293073327 heartbeat IPC: 1.35632 cumulative IPC: 1.31735 (Simulation time: 0 hr 26 min 36 sec) 
Heartbeat CPU 0 instructions: 530000004 cycles: 300026789 heartbeat IPC: 1.43813 cumulative IPC: 1.32071 (Simulation time: 0 hr 27 min 6 sec) 
Heartbeat CPU 0 instructions: 540000000 cycles: 306878488 heartbeat IPC: 1.45949 cumulative IPC: 1.32441 (Simulation time: 0 hr 27 min 36 sec) 
Heartbeat CPU 0 instructions: 550000000 cycles: 315860129 heartbeat IPC: 1.11338 cumulative IPC: 1.31728 (Simulation time: 0 hr 28 min 7 sec) 
Heartbeat CPU 0 instructions: 560000003 cycles: 323086478 heartbeat IPC: 1.38383 cumulative IPC: 1.31904 (Simulation time: 0 hr 28 min 37 sec) 
Heartbeat CPU 0 instructions: 570000004 cycles: 330189946 heartbeat IPC: 1.40776 cumulative IPC: 1.32129 (Simulation time: 0 hr 29 min 6 sec) 
Heartbeat CPU 0 instructions: 580000001 cycles: 337269136 heartbeat IPC: 1.41259 cumulative IPC: 1.32354 (Simulation time: 0 hr 29 min 36 sec) 
Heartbeat CPU 0 instructions: 590000000 cycles: 344424615 heartbeat IPC: 1.39753 cumulative IPC: 1.32534 (Simulation time: 0 hr 30 min 6 sec) 
Heartbeat CPU 0 instructions: 600000000 cycles: 351671866 heartbeat IPC: 1.37983 cumulative IPC: 1.32665 (Simulation time: 0 hr 30 min 35 sec) 
Heartbeat CPU 0 instructions: 610000004 cycles: 359011031 heartbeat IPC: 1.36255 cumulative IPC: 1.3275 (Simulation time: 0 hr 31 min 5 sec) 
Heartbeat CPU 0 instructions: 620000001 cycles: 365811240 heartbeat IPC: 1.47054 cumulative IPC: 1.33058 (Simulation time: 0 hr 31 min 34 sec) 
Heartbeat CPU 0 instructions: 630000001 cycles: 372966083 heartbeat IPC: 1.39765 cumulative IPC: 1.33207 (Simulation time: 0 hr 32 min 4 sec) 
Heartbeat CPU 0 instructions: 640000003 cycles: 379937559 heartbeat IPC: 1.43442 cumulative IPC: 1.33423 (Simulation time: 0 hr 32 min 34 sec) 
Heartbeat CPU 0 instructions: 650000001 cycles: 386085311 heartbeat IPC: 1.62661 cumulative IPC: 1.33959 (Simulation time: 0 hr 33 min 2 sec) 
Heartbeat CPU 0 instructions: 660000003 cycles: 393269337 heartbeat IPC: 1.39198 cumulative IPC: 1.34068 (Simulation time: 0 hr 33 min 32 sec) 
Heartbeat CPU 0 instructions: 670000004 cycles: 400499896 heartbeat IPC: 1.38302 cumulative IPC: 1.34156 (Simulation time: 0 hr 34 min 2 sec) 
Heartbeat CPU 0 instructions: 680000002 cycles: 406992638 heartbeat IPC: 1.54018 cumulative IPC: 1.34517 (Simulation time: 0 hr 34 min 31 sec) 
Heartbeat CPU 0 instructions: 690000003 cycles: 414921817 heartbeat IPC: 1.26116 cumulative IPC: 1.34334 (Simulation time: 0 hr 35 min 1 sec) 
Heartbeat CPU 0 instructions: 700000001 cycles: 422315796 heartbeat IPC: 1.35245 cumulative IPC: 1.34353 (Simulation time: 0 hr 35 min 31 sec) 
Heartbeat CPU 0 instructions: 710000000 cycles: 429922275 heartbeat IPC: 1.31467 cumulative IPC: 1.34295 (Simulation time: 0 hr 36 min 1 sec) 
Heartbeat CPU 0 instructions: 720000003 cycles: 437549987 heartbeat IPC: 1.31101 cumulative IPC: 1.34232 (Simulation time: 0 hr 36 min 32 sec) 
Heartbeat CPU 0 instructions: 730000004 cycles: 444845214 heartbeat IPC: 1.37076 cumulative IPC: 1.34284 (Simulation time: 0 hr 37 min 1 sec) 
Heartbeat CPU 0 instructions: 740000002 cycles: 452452340 heartbeat IPC: 1.31456 cumulative IPC: 1.34231 (Simulation time: 0 hr 37 min 31 sec) 
Heartbeat CPU 0 instructions: 750000003 cycles: 458541113 heartbeat IPC: 1.64237 cumulative IPC: 1.34678 (Simulation time: 0 hr 38 min 0 sec) 
Heartbeat CPU 0 instructions: 760000000 cycles: 464277488 heartbeat IPC: 1.74326 cumulative IPC: 1.35227 (Simulation time: 0 hr 38 min 29 sec) 
Heartbeat CPU 0 instructions: 770000002 cycles: 470048757 heartbeat IPC: 1.73272 cumulative IPC: 1.3575 (Simulation time: 0 hr 38 min 58 sec) 
Heartbeat CPU 0 instructions: 780000004 cycles: 475697647 heartbeat IPC: 1.77026 cumulative IPC: 1.36298 (Simulation time: 0 hr 39 min 27 sec) 
Heartbeat CPU 0 instructions: 790000000 cycles: 481505247 heartbeat IPC: 1.72188 cumulative IPC: 1.36782 (Simulation time: 0 hr 39 min 56 sec) 
Heartbeat CPU 0 instructions: 800000002 cycles: 487288685 heartbeat IPC: 1.72908 cumulative IPC: 1.3726 (Simulation time: 0 hr 40 min 25 sec) 
Heartbeat CPU 0 instructions: 810000002 cycles: 493118066 heartbeat IPC: 1.71545 cumulative IPC: 1.37711 (Simulation time: 0 hr 40 min 55 sec) 
Heartbeat CPU 0 instructions: 820000000 cycles: 498867887 heartbeat IPC: 1.73918 cumulative IPC: 1.38175 (Simulation time: 0 hr 41 min 24 sec) 
Heartbeat CPU 0 instructions: 830000000 cycles: 504739421 heartbeat IPC: 1.70313 cumulative IPC: 1.3859 (Simulation time: 0 hr 41 min 53 sec) 
Heartbeat CPU 0 instructions: 840000002 cycles: 510350234 heartbeat IPC: 1.78227 cumulative IPC: 1.39073 (Simulation time: 0 hr 42 min 22 sec) 
Heartbeat CPU 0 instructions: 850000004 cycles: 516290351 heartbeat IPC: 1.68347 cumulative IPC: 1.39446 (Simulation time: 0 hr 42 min 52 sec) 
Heartbeat CPU 0 instructions: 860000004 cycles: 522067213 heartbeat IPC: 1.73104 cumulative IPC: 1.39858 (Simulation time: 0 hr 43 min 21 sec) 
Heartbeat CPU 0 instructions: 870000000 cycles: 527924669 heartbeat IPC: 1.70723 cumulative IPC: 1.40237 (Simulation time: 0 hr 43 min 50 sec) 
Heartbeat CPU 0 instructions: 880000000 cycles: 533640295 heartbeat IPC: 1.74959 cumulative IPC: 1.40647 (Simulation time: 0 hr 44 min 19 sec) 
Heartbeat CPU 0 instructions: 890000003 cycles: 539296762 heartbeat IPC: 1.76789 cumulative IPC: 1.41065 (Simulation time: 0 hr 44 min 48 sec) 
Heartbeat CPU 0 instructions: 900000000 cycles: 545082941 heartbeat IPC: 1.72826 cumulative IPC: 1.41436 (Simulation time: 0 hr 45 min 17 sec) 
Heartbeat CPU 0 instructions: 910000004 cycles: 550806326 heartbeat IPC: 1.74722 cumulative IPC: 1.41817 (Simulation time: 0 hr 45 min 46 sec) 
Heartbeat CPU 0 instructions: 920000001 cycles: 556603280 heartbeat IPC: 1.72504 cumulative IPC: 1.42168 (Simulation time: 0 hr 46 min 15 sec) 
Heartbeat CPU 0 instructions: 930000001 cycles: 563496159 heartbeat IPC: 1.45077 cumulative IPC: 1.42207 (Simulation time: 0 hr 46 min 45 sec) 
Heartbeat CPU 0 instructions: 940000000 cycles: 570697316 heartbeat IPC: 1.38867 cumulative IPC: 1.42161 (Simulation time: 0 hr 47 min 16 sec) 
Heartbeat CPU 0 instructions: 950000002 cycles: 578781604 heartbeat IPC: 1.23697 cumulative IPC: 1.41879 (Simulation time: 0 hr 47 min 48 sec) 
Heartbeat CPU 0 instructions: 960000004 cycles: 584585622 heartbeat IPC: 1.72294 cumulative IPC: 1.42209 (Simulation time: 0 hr 48 min 16 sec) 
Heartbeat CPU 0 instructions: 970000001 cycles: 591189732 heartbeat IPC: 1.51421 cumulative IPC: 1.42321 (Simulation time: 0 hr 48 min 45 sec) 
Heartbeat CPU 0 instructions: 980000001 cycles: 599981771 heartbeat IPC: 1.13739 cumulative IPC: 1.41864 (Simulation time: 0 hr 49 min 16 sec) 
Heartbeat CPU 0 instructions: 990000000 cycles: 609242848 heartbeat IPC: 1.07979 cumulative IPC: 1.41303 (Simulation time: 0 hr 49 min 47 sec) 
Heartbeat CPU 0 instructions: 1000000000 cycles: 616670918 heartbeat IPC: 1.34624 cumulative IPC: 1.41215 (Simulation time: 0 hr 50 min 19 sec) 
Heartbeat CPU 0 instructions: 1010000004 cycles: 623425721 heartbeat IPC: 1.48043 cumulative IPC: 1.41296 (Simulation time: 0 hr 50 min 48 sec) 
Heartbeat CPU 0 instructions: 1020000000 cycles: 633217864 heartbeat IPC: 1.02123 cumulative IPC: 1.40638 (Simulation time: 0 hr 51 min 20 sec) 
Heartbeat CPU 0 instructions: 1030000003 cycles: 644084752 heartbeat IPC: 0.920227 cumulative IPC: 1.39748 (Simulation time: 0 hr 51 min 52 sec) 
Heartbeat CPU 0 instructions: 1040000003 cycles: 655096711 heartbeat IPC: 0.908104 cumulative IPC: 1.38858 (Simulation time: 0 hr 52 min 25 sec) 
Heartbeat CPU 0 instructions: 1050000000 cycles: 665312976 heartbeat IPC: 0.978831 cumulative IPC: 1.38177 (Simulation time: 0 hr 52 min 58 sec) 
Heartbeat CPU 0 instructions: 1060000000 cycles: 674115460 heartbeat IPC: 1.13604 cumulative IPC: 1.3783 (Simulation time: 0 hr 53 min 29 sec) 
Heartbeat CPU 0 instructions: 1070000001 cycles: 680750836 heartbeat IPC: 1.50707 cumulative IPC: 1.37966 (Simulation time: 0 hr 53 min 58 sec) 
Heartbeat CPU 0 instructions: 1080000004 cycles: 686888900 heartbeat IPC: 1.62918 cumulative IPC: 1.38206 (Simulation time: 0 hr 54 min 27 sec) 
Heartbeat CPU 0 instructions: 1090000002 cycles: 695614551 heartbeat IPC: 1.14605 cumulative IPC: 1.37887 (Simulation time: 0 hr 54 min 59 sec) 
Heartbeat CPU 0 instructions: 1100000004 cycles: 703914866 heartbeat IPC: 1.20477 cumulative IPC: 1.37666 (Simulation time: 0 hr 55 min 30 sec) 
Heartbeat CPU 0 instructions: 1110000000 cycles: 714185617 heartbeat IPC: 0.973638 cumulative IPC: 1.37043 (Simulation time: 0 hr 56 min 2 sec) 
Heartbeat CPU 0 instructions: 1120000004 cycles: 723535713 heartbeat IPC: 1.06951 cumulative IPC: 1.36625 (Simulation time: 0 hr 56 min 33 sec) 
Heartbeat CPU 0 instructions: 1130000002 cycles: 730181764 heartbeat IPC: 1.50465 cumulative IPC: 1.3676 (Simulation time: 0 hr 57 min 2 sec) 
Heartbeat CPU 0 instructions: 1140000003 cycles: 737549540 heartbeat IPC: 1.35726 cumulative IPC: 1.36749 (Simulation time: 0 hr 57 min 33 sec) 
Heartbeat CPU 0 instructions: 1150000003 cycles: 743811137 heartbeat IPC: 1.59704 cumulative IPC: 1.36957 (Simulation time: 0 hr 58 min 3 sec) 
Heartbeat CPU 0 instructions: 1160000003 cycles: 750120774 heartbeat IPC: 1.58488 cumulative IPC: 1.37151 (Simulation time: 0 hr 58 min 33 sec) 
Heartbeat CPU 0 instructions: 1170000001 cycles: 756304762 heartbeat IPC: 1.61708 cumulative IPC: 1.37366 (Simulation time: 0 hr 59 min 4 sec) 
Heartbeat CPU 0 instructions: 1180000002 cycles: 762483896 heartbeat IPC: 1.61835 cumulative IPC: 1.37578 (Simulation time: 0 hr 59 min 34 sec) 
Heartbeat CPU 0 instructions: 1190000004 cycles: 768761045 heartbeat IPC: 1.59308 cumulative IPC: 1.37768 (Simulation time: 1 hr 0 min 4 sec) 
Heartbeat CPU 0 instructions: 1200000004 cycles: 776498649 heartbeat IPC: 1.29239 cumulative IPC: 1.37677 (Simulation time: 1 hr 0 min 35 sec) 
Finished CPU 0 instructions: 1000000002 cycles: 726338141 cumulative IPC: 1.37677 (Simulation time: 1 hr 0 min 35 sec) 

ChampSim completed all CPUs

Region of Interest Statistics

CPU 0 cumulative IPC: 1.37677 instructions: 1000000002 cycles: 726338141
cpu0_DTLB TOTAL     ACCESS:  176563980  HIT:  171599831  MISS:    4964149
cpu0_DTLB LOAD      ACCESS:  138833091  HIT:  135871213  MISS:    2961878
cpu0_DTLB RFO       ACCESS:   37730889  HIT:   35728618  MISS:    2002271
cpu0_DTLB PREFETCH  ACCESS:          0  HIT:          0  MISS:          0
cpu0_DTLB WRITEBACK ACCESS:          0  HIT:          0  MISS:          0
cpu0_DTLB TRANSLATION ACCESS:          0  HIT:          0  MISS:          0
cpu0_DTLB PREFETCH  REQUESTED:          0  ISSUED:          0  USEFUL:          0  USELESS:          0
cpu0_DTLB AVERAGE MISS LATENCY: 11.4469 cycles
cpu0_ITLB TOTAL     ACCESS:   85839519  HIT:   85839516  MISS:          3
cpu0_ITLB LOAD      ACCESS:   85839519  HIT:   85839516  MISS:          3
cpu0_ITLB RFO       ACCESS:          0  HIT:          0  MISS:          0
cpu0_ITLB PREFETCH  ACCESS:          0  HIT:          0  MISS:          0
cpu0_ITLB WRITEBACK ACCESS:          0  HIT:          0  MISS:          0
cpu0_ITLB TRANSLATION ACCESS:          0  HIT:          0  MISS:          0
cpu0_ITLB PREFETCH  REQUESTED:          0  ISSUED:          0  USEFUL:          0  USELESS:          0
cpu0_ITLB AVERAGE MISS LATENCY: 222.667 cycles
cpu0_L1I TOTAL     ACCESS:   18007090  HIT:   18006390  MISS:        700
cpu0_L1I LOAD      ACCESS:   18007090  HIT:   18006390  MISS:        700
cpu0_L1I RFO       ACCESS:          0  HIT:          0  MISS:          0
cpu0_L1I PREFETCH  ACCESS:          0  HIT:          0  MISS:          0
cpu0_L1I WRITEBACK ACCESS:          0  HIT:          0  MISS:          0
cpu0_L1I TRANSLATION ACCESS:          0  HIT:          0  MISS:          0
cpu0_L1I PREFETCH  REQUESTED:          0  ISSUED:          0  USEFUL:          0  USELESS:          0
cpu0_L1I AVERAGE MISS LATENCY: 59.87 cycles
cpu0_STLB TOTAL     ACCESS:    4964152  HIT:    4947440  MISS:      16712
cpu0_STLB LOAD      ACCESS:    2961881  HIT:    2949254  MISS:      12627
cpu0_STLB RFO       ACCESS:    2002271  HIT:    1998186  MISS:       4085
cpu0_STLB PREFETCH  ACCESS:          0  HIT:          0  MISS:          0
cpu0_STLB WRITEBACK ACCESS:          0  HIT:          0  MISS:          0
cpu0_STLB TRANSLATION ACCESS:          0  HIT:          0  MISS:          0
cpu0_STLB PREFETCH  REQUESTED:          0  ISSUED:          0  USEFUL:          0  USELESS:          0
cpu0_STLB AVERAGE MISS LATENCY: 129.909 cycles
cpu0_L1D TOTAL     ACCESS:  185903217  HIT:  180878280  MISS:    5024937
cpu0_L1D LOAD      ACCESS:  122538301  HIT:  118774012  MISS:    3764289
cpu0_L1D RFO       ACCESS:   63348270  HIT:   62095217  MISS:    1253053
cpu0_L1D PREFETCH  ACCESS:          0  HIT:          0  MISS:          0
cpu0_L1D WRITEBACK ACCESS:          0  HIT:          0  MISS:          0
cpu0_L1D TRANSLATION ACCESS:      16646  HIT:       9051  MISS:       7595
cpu0_L1D PREFETCH  REQUESTED:          0  ISSUED:          0  USEFUL:          0  USELESS:          0
cpu0_L1D AVERAGE MISS LATENCY: 74.1298 cycles
cpu0_L2C TOTAL     ACCESS:    9050865  HIT:    7163666  MISS:    1887199
cpu0_L2C LOAD      ACCESS:    3764821  HIT:    2437644  MISS:    1327177
cpu0_L2C RFO       ACCESS:    1252830  HIT:     803406  MISS:     449424
cpu0_L2C PREFETCH  ACCESS:     342654  HIT:     238149  MISS:     104505
cpu0_L2C WRITEBACK ACCESS:    3682965  HIT:    3677208  MISS:       5757
cpu0_L2C TRANSLATION ACCESS:       7595  HIT:       7259  MISS:        336
cpu0_L2C PREFETCH  REQUESTED:     983226  ISSUED:     761256  USEFUL:     124486  USELESS:      11071
cpu0_L2C AVERAGE MISS LATENCY: 166.273 cycles
LLC TOTAL     ACCESS:    3402952  HIT:    2184813  MISS:    1218139
LLC LOAD      ACCESS:    1296063  HIT:     597520  MISS:     698543
LLC RFO       ACCESS:     449420  HIT:      65397  MISS:     384023
LLC PREFETCH  ACCESS:     328934  HIT:     203788  MISS:     125146
LLC WRITEBACK ACCESS:    1328199  HIT:    1317841  MISS:      10358
LLC TRANSLATION ACCESS:        336  HIT:        267  MISS:         69
LLC PREFETCH  REQUESTED:          0  ISSUED:          0  USEFUL:          0  USELESS:          0
LLC AVERAGE MISS LATENCY: 290.842 cycles
Printing the final status 

DRAM Statistics
 CHANNEL 0
 RQ ROW_BUFFER_HIT:      87698  ROW_BUFFER_MISS:    1120067
 DBUS AVG_CONGESTED_CYCLE:    3.90669
 WQ ROW_BUFFER_HIT:     175687  ROW_BUFFER_MISS:     713167  FULL:          0


CPU 0 Branch Prediction Accuracy: 89.8884% MPKI: 15.2201 Average ROB Occupancy at Mispredict: 40.1689
Branch type MPKI
BRANCH_DIRECT_JUMP: 8e-06
BRANCH_INDIRECT: 0.731136
BRANCH_CONDITIONAL: 14.4871
BRANCH_DIRECT_CALL: 5e-06
BRANCH_INDIRECT_CALL: 0.00188
BRANCH_RETURN: 5e-06

***************** Done with 657.xz_s-3167B.champsimtrace.xz using ppf-spp-dev-2, on Wed Apr 20 00:39:37 CDT 2022 ******************
