Started running file 638.imagick_s-10316B.champsimtrace.xz at time Tue Apr 19 18:24:44 CDT 2022 with prefetcher ppf-spp-dev-2

*** ChampSim Multicore Out-of-Order Simulator ***

Warmup Instructions: 200000000
Simulation Instructions: 1000000000
Number of CPUs: 1
Off-chip DRAM Size: 4 GiB Channels: 1 Width: 64-bit Data Rate: 3200 MT/s

VirtualMemory physical capacity: 8588881920 num_ppages: 2096895
VirtualMemory page size: 4096 log2_page_size: 12

CPU 0 runs /home/faculty/p/pgratz/dpc3_traces/638.imagick_s-10316B.champsimtrace.xz
CPU 0 Bimodal branch predictor
Basic BTB sets: 1024 ways: 8 indirect buffer size: 4096 RAS size: 64
cpu0_L2C PPF SPP DEV Prefetcher
Heartbeat CPU 0 instructions: 10000002 cycles: 2500064 heartbeat IPC: 3.9999 cumulative IPC: 3.9999 (Simulation time: 0 hr 0 min 26 sec) 
Heartbeat CPU 0 instructions: 20000002 cycles: 5000064 heartbeat IPC: 4 cumulative IPC: 3.99995 (Simulation time: 0 hr 0 min 51 sec) 
Heartbeat CPU 0 instructions: 30000002 cycles: 7500064 heartbeat IPC: 4 cumulative IPC: 3.99997 (Simulation time: 0 hr 1 min 16 sec) 
Heartbeat CPU 0 instructions: 40000002 cycles: 10000064 heartbeat IPC: 4 cumulative IPC: 3.99997 (Simulation time: 0 hr 1 min 42 sec) 
Heartbeat CPU 0 instructions: 50000002 cycles: 12500064 heartbeat IPC: 4 cumulative IPC: 3.99998 (Simulation time: 0 hr 2 min 7 sec) 
Heartbeat CPU 0 instructions: 60000002 cycles: 15000064 heartbeat IPC: 4 cumulative IPC: 3.99998 (Simulation time: 0 hr 2 min 32 sec) 
Heartbeat CPU 0 instructions: 70000002 cycles: 17500064 heartbeat IPC: 4 cumulative IPC: 3.99999 (Simulation time: 0 hr 2 min 57 sec) 
Heartbeat CPU 0 instructions: 80000002 cycles: 20000064 heartbeat IPC: 4 cumulative IPC: 3.99999 (Simulation time: 0 hr 3 min 23 sec) 
Heartbeat CPU 0 instructions: 90000002 cycles: 22500064 heartbeat IPC: 4 cumulative IPC: 3.99999 (Simulation time: 0 hr 3 min 48 sec) 
Heartbeat CPU 0 instructions: 100000002 cycles: 25000064 heartbeat IPC: 4 cumulative IPC: 3.99999 (Simulation time: 0 hr 4 min 13 sec) 
Heartbeat CPU 0 instructions: 110000002 cycles: 27500064 heartbeat IPC: 4 cumulative IPC: 3.99999 (Simulation time: 0 hr 4 min 39 sec) 
Heartbeat CPU 0 instructions: 120000002 cycles: 30000064 heartbeat IPC: 4 cumulative IPC: 3.99999 (Simulation time: 0 hr 5 min 4 sec) 
Heartbeat CPU 0 instructions: 130000002 cycles: 32500064 heartbeat IPC: 4 cumulative IPC: 3.99999 (Simulation time: 0 hr 5 min 29 sec) 
Heartbeat CPU 0 instructions: 140000002 cycles: 35000064 heartbeat IPC: 4 cumulative IPC: 3.99999 (Simulation time: 0 hr 5 min 55 sec) 
Heartbeat CPU 0 instructions: 150000002 cycles: 37500064 heartbeat IPC: 4 cumulative IPC: 3.99999 (Simulation time: 0 hr 6 min 20 sec) 
Heartbeat CPU 0 instructions: 160000002 cycles: 40000064 heartbeat IPC: 4 cumulative IPC: 3.99999 (Simulation time: 0 hr 6 min 45 sec) 
Heartbeat CPU 0 instructions: 170000002 cycles: 42500064 heartbeat IPC: 4 cumulative IPC: 3.99999 (Simulation time: 0 hr 7 min 11 sec) 
Heartbeat CPU 0 instructions: 180000002 cycles: 45000064 heartbeat IPC: 4 cumulative IPC: 3.99999 (Simulation time: 0 hr 7 min 37 sec) 
Heartbeat CPU 0 instructions: 190000002 cycles: 47500064 heartbeat IPC: 4 cumulative IPC: 3.99999 (Simulation time: 0 hr 8 min 2 sec) 
Heartbeat CPU 0 instructions: 200000002 cycles: 50000064 heartbeat IPC: 4 cumulative IPC: 3.99999 (Simulation time: 0 hr 8 min 27 sec) 

Warmup complete CPU 0 instructions: 200000002 cycles: 50000064 (Simulation time: 0 hr 8 min 27 sec) 

Heartbeat CPU 0 instructions: 210000000 cycles: 53414636 heartbeat IPC: 2.92862 cumulative IPC: 2.92862 (Simulation time: 0 hr 8 min 55 sec) 
Heartbeat CPU 0 instructions: 220000004 cycles: 56830642 heartbeat IPC: 2.9274 cumulative IPC: 2.92801 (Simulation time: 0 hr 9 min 23 sec) 
Heartbeat CPU 0 instructions: 230000004 cycles: 60245347 heartbeat IPC: 2.92851 cumulative IPC: 2.92818 (Simulation time: 0 hr 9 min 52 sec) 
Heartbeat CPU 0 instructions: 240000004 cycles: 63660659 heartbeat IPC: 2.92799 cumulative IPC: 2.92813 (Simulation time: 0 hr 10 min 20 sec) 
Heartbeat CPU 0 instructions: 250000000 cycles: 67075521 heartbeat IPC: 2.92837 cumulative IPC: 2.92818 (Simulation time: 0 hr 10 min 48 sec) 
Heartbeat CPU 0 instructions: 260000001 cycles: 70491965 heartbeat IPC: 2.92702 cumulative IPC: 2.92799 (Simulation time: 0 hr 11 min 16 sec) 
Heartbeat CPU 0 instructions: 270000001 cycles: 73907143 heartbeat IPC: 2.92811 cumulative IPC: 2.928 (Simulation time: 0 hr 11 min 44 sec) 
Heartbeat CPU 0 instructions: 280000002 cycles: 77322120 heartbeat IPC: 2.92828 cumulative IPC: 2.92804 (Simulation time: 0 hr 12 min 12 sec) 
Heartbeat CPU 0 instructions: 290000000 cycles: 80737835 heartbeat IPC: 2.92764 cumulative IPC: 2.92799 (Simulation time: 0 hr 12 min 39 sec) 
Heartbeat CPU 0 instructions: 300000002 cycles: 84153008 heartbeat IPC: 2.92811 cumulative IPC: 2.92801 (Simulation time: 0 hr 13 min 7 sec) 
Heartbeat CPU 0 instructions: 310000000 cycles: 87567485 heartbeat IPC: 2.92871 cumulative IPC: 2.92807 (Simulation time: 0 hr 13 min 35 sec) 
Heartbeat CPU 0 instructions: 320000002 cycles: 90982567 heartbeat IPC: 2.92819 cumulative IPC: 2.92808 (Simulation time: 0 hr 14 min 3 sec) 
Heartbeat CPU 0 instructions: 330000002 cycles: 94398279 heartbeat IPC: 2.92765 cumulative IPC: 2.92805 (Simulation time: 0 hr 14 min 31 sec) 
Heartbeat CPU 0 instructions: 340000002 cycles: 97813329 heartbeat IPC: 2.92821 cumulative IPC: 2.92806 (Simulation time: 0 hr 14 min 59 sec) 
Heartbeat CPU 0 instructions: 350000003 cycles: 101228358 heartbeat IPC: 2.92823 cumulative IPC: 2.92807 (Simulation time: 0 hr 15 min 27 sec) 
Heartbeat CPU 0 instructions: 360000002 cycles: 104643521 heartbeat IPC: 2.92812 cumulative IPC: 2.92807 (Simulation time: 0 hr 15 min 55 sec) 
Heartbeat CPU 0 instructions: 370000003 cycles: 108059229 heartbeat IPC: 2.92765 cumulative IPC: 2.92805 (Simulation time: 0 hr 16 min 23 sec) 
Heartbeat CPU 0 instructions: 380000004 cycles: 111473658 heartbeat IPC: 2.92875 cumulative IPC: 2.92809 (Simulation time: 0 hr 16 min 51 sec) 
Heartbeat CPU 0 instructions: 390000002 cycles: 114889709 heartbeat IPC: 2.92736 cumulative IPC: 2.92805 (Simulation time: 0 hr 17 min 19 sec) 
Heartbeat CPU 0 instructions: 400000001 cycles: 118304479 heartbeat IPC: 2.92845 cumulative IPC: 2.92807 (Simulation time: 0 hr 17 min 46 sec) 
Heartbeat CPU 0 instructions: 410000004 cycles: 121720181 heartbeat IPC: 2.92766 cumulative IPC: 2.92805 (Simulation time: 0 hr 18 min 14 sec) 
Heartbeat CPU 0 instructions: 420000003 cycles: 125134497 heartbeat IPC: 2.92884 cumulative IPC: 2.92808 (Simulation time: 0 hr 18 min 42 sec) 
Heartbeat CPU 0 instructions: 430000001 cycles: 128551112 heartbeat IPC: 2.92687 cumulative IPC: 2.92803 (Simulation time: 0 hr 19 min 10 sec) 
Heartbeat CPU 0 instructions: 440000003 cycles: 131965917 heartbeat IPC: 2.92843 cumulative IPC: 2.92805 (Simulation time: 0 hr 19 min 38 sec) 
Heartbeat CPU 0 instructions: 450000002 cycles: 135381969 heartbeat IPC: 2.92736 cumulative IPC: 2.92802 (Simulation time: 0 hr 20 min 6 sec) 
Heartbeat CPU 0 instructions: 460000002 cycles: 138796108 heartbeat IPC: 2.929 cumulative IPC: 2.92806 (Simulation time: 0 hr 20 min 34 sec) 
Heartbeat CPU 0 instructions: 470000001 cycles: 142212529 heartbeat IPC: 2.92704 cumulative IPC: 2.92802 (Simulation time: 0 hr 21 min 2 sec) 
Heartbeat CPU 0 instructions: 480000001 cycles: 145626676 heartbeat IPC: 2.92899 cumulative IPC: 2.92806 (Simulation time: 0 hr 21 min 30 sec) 
Heartbeat CPU 0 instructions: 490000004 cycles: 149043065 heartbeat IPC: 2.92707 cumulative IPC: 2.92802 (Simulation time: 0 hr 21 min 58 sec) 
Heartbeat CPU 0 instructions: 500000003 cycles: 152458218 heartbeat IPC: 2.92813 cumulative IPC: 2.92802 (Simulation time: 0 hr 22 min 26 sec) 
Heartbeat CPU 0 instructions: 510000000 cycles: 155875614 heartbeat IPC: 2.9262 cumulative IPC: 2.92797 (Simulation time: 0 hr 22 min 53 sec) 
Heartbeat CPU 0 instructions: 520000000 cycles: 159291267 heartbeat IPC: 2.9277 cumulative IPC: 2.92796 (Simulation time: 0 hr 23 min 21 sec) 
Heartbeat CPU 0 instructions: 530000001 cycles: 162708946 heartbeat IPC: 2.92596 cumulative IPC: 2.9279 (Simulation time: 0 hr 23 min 49 sec) 
Heartbeat CPU 0 instructions: 540000003 cycles: 166124281 heartbeat IPC: 2.92797 cumulative IPC: 2.9279 (Simulation time: 0 hr 24 min 17 sec) 
Heartbeat CPU 0 instructions: 550000002 cycles: 169540587 heartbeat IPC: 2.92714 cumulative IPC: 2.92788 (Simulation time: 0 hr 24 min 45 sec) 
Heartbeat CPU 0 instructions: 560000002 cycles: 172956378 heartbeat IPC: 2.92758 cumulative IPC: 2.92787 (Simulation time: 0 hr 25 min 13 sec) 
Heartbeat CPU 0 instructions: 570000000 cycles: 176373594 heartbeat IPC: 2.92636 cumulative IPC: 2.92783 (Simulation time: 0 hr 25 min 41 sec) 
Heartbeat CPU 0 instructions: 580000000 cycles: 179789395 heartbeat IPC: 2.92757 cumulative IPC: 2.92782 (Simulation time: 0 hr 26 min 9 sec) 
Heartbeat CPU 0 instructions: 590000000 cycles: 183206028 heartbeat IPC: 2.92686 cumulative IPC: 2.9278 (Simulation time: 0 hr 26 min 37 sec) 
Heartbeat CPU 0 instructions: 600000002 cycles: 186621261 heartbeat IPC: 2.92806 cumulative IPC: 2.9278 (Simulation time: 0 hr 27 min 5 sec) 
Heartbeat CPU 0 instructions: 610000001 cycles: 190038156 heartbeat IPC: 2.92663 cumulative IPC: 2.92777 (Simulation time: 0 hr 27 min 32 sec) 
Heartbeat CPU 0 instructions: 620000003 cycles: 193453696 heartbeat IPC: 2.9278 cumulative IPC: 2.92778 (Simulation time: 0 hr 28 min 0 sec) 
Heartbeat CPU 0 instructions: 630000001 cycles: 196870666 heartbeat IPC: 2.92657 cumulative IPC: 2.92775 (Simulation time: 0 hr 28 min 28 sec) 
Heartbeat CPU 0 instructions: 640000001 cycles: 200286420 heartbeat IPC: 2.92761 cumulative IPC: 2.92774 (Simulation time: 0 hr 28 min 56 sec) 
Heartbeat CPU 0 instructions: 650000004 cycles: 203703538 heartbeat IPC: 2.92644 cumulative IPC: 2.92772 (Simulation time: 0 hr 29 min 24 sec) 
Heartbeat CPU 0 instructions: 660000003 cycles: 207119436 heartbeat IPC: 2.92749 cumulative IPC: 2.92771 (Simulation time: 0 hr 29 min 52 sec) 
Heartbeat CPU 0 instructions: 670000004 cycles: 210536325 heartbeat IPC: 2.92664 cumulative IPC: 2.92769 (Simulation time: 0 hr 30 min 20 sec) 
Heartbeat CPU 0 instructions: 680000001 cycles: 213951552 heartbeat IPC: 2.92806 cumulative IPC: 2.9277 (Simulation time: 0 hr 30 min 48 sec) 
Heartbeat CPU 0 instructions: 690000000 cycles: 217366957 heartbeat IPC: 2.92791 cumulative IPC: 2.9277 (Simulation time: 0 hr 31 min 16 sec) 
Heartbeat CPU 0 instructions: 700000004 cycles: 220781968 heartbeat IPC: 2.92825 cumulative IPC: 2.92771 (Simulation time: 0 hr 31 min 44 sec) 
Heartbeat CPU 0 instructions: 710000000 cycles: 224197419 heartbeat IPC: 2.92787 cumulative IPC: 2.92771 (Simulation time: 0 hr 32 min 12 sec) 
Heartbeat CPU 0 instructions: 720000000 cycles: 227612258 heartbeat IPC: 2.9284 cumulative IPC: 2.92773 (Simulation time: 0 hr 32 min 40 sec) 
Heartbeat CPU 0 instructions: 730000000 cycles: 231027652 heartbeat IPC: 2.92792 cumulative IPC: 2.92773 (Simulation time: 0 hr 33 min 7 sec) 
Heartbeat CPU 0 instructions: 740000004 cycles: 234443463 heartbeat IPC: 2.92756 cumulative IPC: 2.92773 (Simulation time: 0 hr 33 min 35 sec) 
Heartbeat CPU 0 instructions: 750000004 cycles: 237858071 heartbeat IPC: 2.92859 cumulative IPC: 2.92774 (Simulation time: 0 hr 34 min 3 sec) 
Heartbeat CPU 0 instructions: 760000003 cycles: 241274055 heartbeat IPC: 2.92741 cumulative IPC: 2.92774 (Simulation time: 0 hr 34 min 31 sec) 
Heartbeat CPU 0 instructions: 770000003 cycles: 244690207 heartbeat IPC: 2.92727 cumulative IPC: 2.92773 (Simulation time: 0 hr 34 min 59 sec) 
Heartbeat CPU 0 instructions: 780000002 cycles: 248106437 heartbeat IPC: 2.9272 cumulative IPC: 2.92772 (Simulation time: 0 hr 35 min 27 sec) 
Heartbeat CPU 0 instructions: 790000002 cycles: 251521627 heartbeat IPC: 2.92809 cumulative IPC: 2.92773 (Simulation time: 0 hr 35 min 54 sec) 
Heartbeat CPU 0 instructions: 800000001 cycles: 254937717 heartbeat IPC: 2.92732 cumulative IPC: 2.92772 (Simulation time: 0 hr 36 min 22 sec) 
Heartbeat CPU 0 instructions: 810000004 cycles: 258352264 heartbeat IPC: 2.92865 cumulative IPC: 2.92773 (Simulation time: 0 hr 36 min 50 sec) 
Heartbeat CPU 0 instructions: 820000003 cycles: 261768236 heartbeat IPC: 2.92742 cumulative IPC: 2.92773 (Simulation time: 0 hr 37 min 18 sec) 
Heartbeat CPU 0 instructions: 830000001 cycles: 265182029 heartbeat IPC: 2.92929 cumulative IPC: 2.92775 (Simulation time: 0 hr 37 min 45 sec) 
Heartbeat CPU 0 instructions: 840000003 cycles: 268598540 heartbeat IPC: 2.92696 cumulative IPC: 2.92774 (Simulation time: 0 hr 38 min 13 sec) 
Heartbeat CPU 0 instructions: 850000004 cycles: 272012585 heartbeat IPC: 2.92908 cumulative IPC: 2.92776 (Simulation time: 0 hr 38 min 41 sec) 
Heartbeat CPU 0 instructions: 860000003 cycles: 275428572 heartbeat IPC: 2.92741 cumulative IPC: 2.92776 (Simulation time: 0 hr 39 min 9 sec) 
Heartbeat CPU 0 instructions: 870000003 cycles: 278842861 heartbeat IPC: 2.92887 cumulative IPC: 2.92777 (Simulation time: 0 hr 39 min 36 sec) 
Heartbeat CPU 0 instructions: 880000003 cycles: 282259052 heartbeat IPC: 2.92724 cumulative IPC: 2.92777 (Simulation time: 0 hr 40 min 4 sec) 
Heartbeat CPU 0 instructions: 890000002 cycles: 285673512 heartbeat IPC: 2.92872 cumulative IPC: 2.92778 (Simulation time: 0 hr 40 min 32 sec) 
Heartbeat CPU 0 instructions: 900000001 cycles: 289089439 heartbeat IPC: 2.92746 cumulative IPC: 2.92778 (Simulation time: 0 hr 41 min 0 sec) 
Heartbeat CPU 0 instructions: 910000000 cycles: 292504347 heartbeat IPC: 2.92834 cumulative IPC: 2.92778 (Simulation time: 0 hr 41 min 27 sec) 
Heartbeat CPU 0 instructions: 920000004 cycles: 295920259 heartbeat IPC: 2.92748 cumulative IPC: 2.92778 (Simulation time: 0 hr 41 min 55 sec) 
Heartbeat CPU 0 instructions: 930000000 cycles: 299333955 heartbeat IPC: 2.92938 cumulative IPC: 2.9278 (Simulation time: 0 hr 42 min 23 sec) 
Heartbeat CPU 0 instructions: 940000004 cycles: 302749637 heartbeat IPC: 2.92767 cumulative IPC: 2.9278 (Simulation time: 0 hr 42 min 51 sec) 
Heartbeat CPU 0 instructions: 950000004 cycles: 306164315 heartbeat IPC: 2.92853 cumulative IPC: 2.92781 (Simulation time: 0 hr 43 min 18 sec) 
Heartbeat CPU 0 instructions: 960000003 cycles: 309579870 heartbeat IPC: 2.92778 cumulative IPC: 2.92781 (Simulation time: 0 hr 43 min 46 sec) 
Heartbeat CPU 0 instructions: 970000000 cycles: 312994237 heartbeat IPC: 2.9288 cumulative IPC: 2.92782 (Simulation time: 0 hr 44 min 14 sec) 
Heartbeat CPU 0 instructions: 980000004 cycles: 316410190 heartbeat IPC: 2.92744 cumulative IPC: 2.92782 (Simulation time: 0 hr 44 min 42 sec) 
Heartbeat CPU 0 instructions: 990000002 cycles: 319823972 heartbeat IPC: 2.9293 cumulative IPC: 2.92784 (Simulation time: 0 hr 45 min 9 sec) 
Heartbeat CPU 0 instructions: 1000000001 cycles: 323239259 heartbeat IPC: 2.92801 cumulative IPC: 2.92784 (Simulation time: 0 hr 45 min 37 sec) 
Heartbeat CPU 0 instructions: 1010000003 cycles: 326653936 heartbeat IPC: 2.92854 cumulative IPC: 2.92785 (Simulation time: 0 hr 46 min 5 sec) 
Heartbeat CPU 0 instructions: 1020000003 cycles: 330069809 heartbeat IPC: 2.92751 cumulative IPC: 2.92784 (Simulation time: 0 hr 46 min 33 sec) 
Heartbeat CPU 0 instructions: 1030000001 cycles: 333483744 heartbeat IPC: 2.92917 cumulative IPC: 2.92786 (Simulation time: 0 hr 47 min 1 sec) 
Heartbeat CPU 0 instructions: 1040000001 cycles: 336898998 heartbeat IPC: 2.92804 cumulative IPC: 2.92786 (Simulation time: 0 hr 47 min 28 sec) 
Heartbeat CPU 0 instructions: 1050000004 cycles: 340313354 heartbeat IPC: 2.92881 cumulative IPC: 2.92787 (Simulation time: 0 hr 47 min 56 sec) 
Heartbeat CPU 0 instructions: 1060000004 cycles: 343728853 heartbeat IPC: 2.92783 cumulative IPC: 2.92787 (Simulation time: 0 hr 48 min 24 sec) 
Heartbeat CPU 0 instructions: 1070000000 cycles: 347143913 heartbeat IPC: 2.92821 cumulative IPC: 2.92787 (Simulation time: 0 hr 48 min 52 sec) 
Heartbeat CPU 0 instructions: 1080000004 cycles: 350559197 heartbeat IPC: 2.92802 cumulative IPC: 2.92788 (Simulation time: 0 hr 49 min 20 sec) 
Heartbeat CPU 0 instructions: 1090000004 cycles: 353973995 heartbeat IPC: 2.92843 cumulative IPC: 2.92788 (Simulation time: 0 hr 49 min 47 sec) 
Heartbeat CPU 0 instructions: 1100000001 cycles: 357388664 heartbeat IPC: 2.92854 cumulative IPC: 2.92789 (Simulation time: 0 hr 50 min 15 sec) 
Heartbeat CPU 0 instructions: 1110000003 cycles: 360804009 heartbeat IPC: 2.92796 cumulative IPC: 2.92789 (Simulation time: 0 hr 50 min 43 sec) 
Heartbeat CPU 0 instructions: 1120000000 cycles: 364219252 heartbeat IPC: 2.92805 cumulative IPC: 2.92789 (Simulation time: 0 hr 51 min 11 sec) 
Heartbeat CPU 0 instructions: 1130000004 cycles: 367634579 heartbeat IPC: 2.92798 cumulative IPC: 2.92789 (Simulation time: 0 hr 51 min 39 sec) 
Heartbeat CPU 0 instructions: 1140000001 cycles: 371049870 heartbeat IPC: 2.92801 cumulative IPC: 2.92789 (Simulation time: 0 hr 52 min 7 sec) 
Heartbeat CPU 0 instructions: 1150000003 cycles: 374465773 heartbeat IPC: 2.92748 cumulative IPC: 2.92789 (Simulation time: 0 hr 52 min 34 sec) 
Heartbeat CPU 0 instructions: 1160000000 cycles: 377880250 heartbeat IPC: 2.92871 cumulative IPC: 2.9279 (Simulation time: 0 hr 53 min 2 sec) 
Heartbeat CPU 0 instructions: 1170000004 cycles: 381295472 heartbeat IPC: 2.92807 cumulative IPC: 2.9279 (Simulation time: 0 hr 53 min 30 sec) 
Heartbeat CPU 0 instructions: 1180000000 cycles: 384710509 heartbeat IPC: 2.92822 cumulative IPC: 2.9279 (Simulation time: 0 hr 53 min 58 sec) 
Heartbeat CPU 0 instructions: 1190000004 cycles: 388127064 heartbeat IPC: 2.92693 cumulative IPC: 2.92789 (Simulation time: 0 hr 54 min 26 sec) 
Heartbeat CPU 0 instructions: 1200000001 cycles: 391541157 heartbeat IPC: 2.92903 cumulative IPC: 2.92791 (Simulation time: 0 hr 54 min 54 sec) 
Finished CPU 0 instructions: 1000000004 cycles: 341541094 cumulative IPC: 2.92791 (Simulation time: 0 hr 54 min 54 sec) 

ChampSim completed all CPUs

Region of Interest Statistics

CPU 0 cumulative IPC: 2.92791 instructions: 1000000004 cycles: 341541094
cpu0_DTLB TOTAL     ACCESS:   83978294  HIT:   83514479  MISS:     463815
cpu0_DTLB LOAD      ACCESS:   83955612  HIT:   83497375  MISS:     458237
cpu0_DTLB RFO       ACCESS:      22682  HIT:      17104  MISS:       5578
cpu0_DTLB PREFETCH  ACCESS:          0  HIT:          0  MISS:          0
cpu0_DTLB WRITEBACK ACCESS:          0  HIT:          0  MISS:          0
cpu0_DTLB TRANSLATION ACCESS:          0  HIT:          0  MISS:          0
cpu0_DTLB PREFETCH  REQUESTED:          0  ISSUED:          0  USEFUL:          0  USELESS:          0
cpu0_DTLB AVERAGE MISS LATENCY: 11.3007 cycles
cpu0_ITLB TOTAL     ACCESS:   28259525  HIT:   28259525  MISS:          0
cpu0_ITLB LOAD      ACCESS:   28259525  HIT:   28259525  MISS:          0
cpu0_ITLB RFO       ACCESS:          0  HIT:          0  MISS:          0
cpu0_ITLB PREFETCH  ACCESS:          0  HIT:          0  MISS:          0
cpu0_ITLB WRITEBACK ACCESS:          0  HIT:          0  MISS:          0
cpu0_ITLB TRANSLATION ACCESS:          0  HIT:          0  MISS:          0
cpu0_ITLB PREFETCH  REQUESTED:          0  ISSUED:          0  USEFUL:          0  USELESS:          0
cpu0_ITLB AVERAGE MISS LATENCY: -nan cycles
cpu0_STLB TOTAL     ACCESS:     463815  HIT:     463204  MISS:        611
cpu0_STLB LOAD      ACCESS:     458237  HIT:     457632  MISS:        605
cpu0_STLB RFO       ACCESS:       5578  HIT:       5572  MISS:          6
cpu0_STLB PREFETCH  ACCESS:          0  HIT:          0  MISS:          0
cpu0_STLB WRITEBACK ACCESS:          0  HIT:          0  MISS:          0
cpu0_STLB TRANSLATION ACCESS:          0  HIT:          0  MISS:          0
cpu0_STLB PREFETCH  REQUESTED:          0  ISSUED:          0  USEFUL:          0  USELESS:          0
cpu0_STLB AVERAGE MISS LATENCY: 219.206 cycles
cpu0_L1D TOTAL     ACCESS:   35747376  HIT:   26847096  MISS:    8900280
cpu0_L1D LOAD      ACCESS:   35702271  HIT:   26808531  MISS:    8893740
cpu0_L1D RFO       ACCESS:      44494  HIT:      38565  MISS:       5929
cpu0_L1D PREFETCH  ACCESS:          0  HIT:          0  MISS:          0
cpu0_L1D WRITEBACK ACCESS:          0  HIT:          0  MISS:          0
cpu0_L1D TRANSLATION ACCESS:        611  HIT:          0  MISS:        611
cpu0_L1D PREFETCH  REQUESTED:          0  ISSUED:          0  USEFUL:          0  USELESS:          0
cpu0_L1D AVERAGE MISS LATENCY: 11.0985 cycles
cpu0_L2C TOTAL     ACCESS:   50074101  HIT:   49853437  MISS:     220664
cpu0_L2C LOAD      ACCESS:    8893740  HIT:    8880453  MISS:      13287
cpu0_L2C RFO       ACCESS:       5929  HIT:       5580  MISS:        349
cpu0_L2C PREFETCH  ACCESS:   41159527  HIT:   40952505  MISS:     207022
cpu0_L2C WRITEBACK ACCESS:      14294  HIT:      14294  MISS:          0
cpu0_L2C TRANSLATION ACCESS:        611  HIT:        605  MISS:          6
cpu0_L2C PREFETCH  REQUESTED:   45028208  ISSUED:   44580809  USEFUL:     181748  USELESS:      27767
cpu0_L2C AVERAGE MISS LATENCY: 23.534 cycles
LLC TOTAL     ACCESS:    3633781  HIT:    3594534  MISS:      39247
LLC LOAD      ACCESS:      10846  HIT:       9979  MISS:        867
LLC RFO       ACCESS:        349  HIT:          0  MISS:        349
LLC PREFETCH  ACCESS:    3622166  HIT:    3584135  MISS:      38031
LLC WRITEBACK ACCESS:        414  HIT:        414  MISS:          0
LLC TRANSLATION ACCESS:          6  HIT:          6  MISS:          0
LLC PREFETCH  REQUESTED:          0  ISSUED:          0  USEFUL:          0  USELESS:          0
LLC AVERAGE MISS LATENCY: 166.66 cycles
Printing the final status 

DRAM Statistics
 CHANNEL 0
 RQ ROW_BUFFER_HIT:        650  ROW_BUFFER_MISS:      38597
 DBUS AVG_CONGESTED_CYCLE:    3.96289
 WQ ROW_BUFFER_HIT:          4  ROW_BUFFER_MISS:        125  FULL:          0


CPU 0 Branch Prediction Accuracy: 99.396% MPKI: 0.625173 Average ROB Occupancy at Mispredict: 187.804
Branch type MPKI
BRANCH_DIRECT_JUMP: 1e-06
BRANCH_INDIRECT: 0
BRANCH_CONDITIONAL: 0.625172
BRANCH_DIRECT_CALL: 0
BRANCH_INDIRECT_CALL: 0
BRANCH_RETURN: 0

***************** Done with 638.imagick_s-10316B.champsimtrace.xz using ppf-spp-dev-2, on Tue Apr 19 19:19:38 CDT 2022 ******************
