Started running file 620.omnetpp_s-874B.champsimtrace.xz at time Tue Apr 19 19:54:50 CDT 2022 with prefetcher ppf-spp-dev-2

*** ChampSim Multicore Out-of-Order Simulator ***

Warmup Instructions: 200000000
Simulation Instructions: 1000000000
Number of CPUs: 1
Off-chip DRAM Size: 4 GiB Channels: 1 Width: 64-bit Data Rate: 3200 MT/s

VirtualMemory physical capacity: 8588881920 num_ppages: 2096895
VirtualMemory page size: 4096 log2_page_size: 12

CPU 0 runs /home/faculty/p/pgratz/dpc3_traces/620.omnetpp_s-874B.champsimtrace.xz
CPU 0 Bimodal branch predictor
Basic BTB sets: 1024 ways: 8 indirect buffer size: 4096 RAS size: 64
cpu0_L2C PPF SPP DEV Prefetcher
Heartbeat CPU 0 instructions: 10000000 cycles: 2502943 heartbeat IPC: 3.9953 cumulative IPC: 3.9953 (Simulation time: 0 hr 0 min 37 sec) 
Heartbeat CPU 0 instructions: 20000003 cycles: 5005318 heartbeat IPC: 3.9962 cumulative IPC: 3.99575 (Simulation time: 0 hr 1 min 15 sec) 
Heartbeat CPU 0 instructions: 30000000 cycles: 7508101 heartbeat IPC: 3.99555 cumulative IPC: 3.99568 (Simulation time: 0 hr 1 min 52 sec) 
Heartbeat CPU 0 instructions: 40000001 cycles: 10011287 heartbeat IPC: 3.99491 cumulative IPC: 3.99549 (Simulation time: 0 hr 2 min 30 sec) 
Heartbeat CPU 0 instructions: 50000002 cycles: 12514868 heartbeat IPC: 3.99428 cumulative IPC: 3.99525 (Simulation time: 0 hr 3 min 7 sec) 
Heartbeat CPU 0 instructions: 60000002 cycles: 15018502 heartbeat IPC: 3.99419 cumulative IPC: 3.99507 (Simulation time: 0 hr 3 min 45 sec) 
Heartbeat CPU 0 instructions: 70000002 cycles: 17521306 heartbeat IPC: 3.99552 cumulative IPC: 3.99514 (Simulation time: 0 hr 4 min 22 sec) 
Heartbeat CPU 0 instructions: 80000002 cycles: 20024400 heartbeat IPC: 3.99506 cumulative IPC: 3.99513 (Simulation time: 0 hr 4 min 59 sec) 
Heartbeat CPU 0 instructions: 90000002 cycles: 22529277 heartbeat IPC: 3.99221 cumulative IPC: 3.9948 (Simulation time: 0 hr 5 min 37 sec) 
Heartbeat CPU 0 instructions: 100000000 cycles: 25033006 heartbeat IPC: 3.99404 cumulative IPC: 3.99473 (Simulation time: 0 hr 6 min 15 sec) 
Heartbeat CPU 0 instructions: 110000003 cycles: 27536901 heartbeat IPC: 3.99378 cumulative IPC: 3.99464 (Simulation time: 0 hr 6 min 52 sec) 
Heartbeat CPU 0 instructions: 120000004 cycles: 30040535 heartbeat IPC: 3.99419 cumulative IPC: 3.9946 (Simulation time: 0 hr 7 min 29 sec) 
Heartbeat CPU 0 instructions: 130000000 cycles: 32543836 heartbeat IPC: 3.99472 cumulative IPC: 3.99461 (Simulation time: 0 hr 8 min 7 sec) 
Heartbeat CPU 0 instructions: 140000001 cycles: 35046893 heartbeat IPC: 3.99512 cumulative IPC: 3.99465 (Simulation time: 0 hr 8 min 44 sec) 
Heartbeat CPU 0 instructions: 150000001 cycles: 37550416 heartbeat IPC: 3.99437 cumulative IPC: 3.99463 (Simulation time: 0 hr 9 min 21 sec) 
Heartbeat CPU 0 instructions: 160000001 cycles: 40054394 heartbeat IPC: 3.99365 cumulative IPC: 3.99457 (Simulation time: 0 hr 9 min 59 sec) 
Heartbeat CPU 0 instructions: 170000002 cycles: 42558196 heartbeat IPC: 3.99393 cumulative IPC: 3.99453 (Simulation time: 0 hr 10 min 36 sec) 
Heartbeat CPU 0 instructions: 180000002 cycles: 45061222 heartbeat IPC: 3.99516 cumulative IPC: 3.99457 (Simulation time: 0 hr 11 min 14 sec) 
Heartbeat CPU 0 instructions: 190000002 cycles: 47564819 heartbeat IPC: 3.99425 cumulative IPC: 3.99455 (Simulation time: 0 hr 11 min 51 sec) 
Heartbeat CPU 0 instructions: 200000002 cycles: 50067916 heartbeat IPC: 3.99505 cumulative IPC: 3.99457 (Simulation time: 0 hr 12 min 28 sec) 

Warmup complete CPU 0 instructions: 200000002 cycles: 50067916 (Simulation time: 0 hr 12 min 28 sec) 

Heartbeat CPU 0 instructions: 210000000 cycles: 68631642 heartbeat IPC: 0.538685 cumulative IPC: 0.538685 (Simulation time: 0 hr 13 min 33 sec) 
Heartbeat CPU 0 instructions: 220000000 cycles: 87216639 heartbeat IPC: 0.538068 cumulative IPC: 0.538376 (Simulation time: 0 hr 14 min 36 sec) 
Heartbeat CPU 0 instructions: 230000004 cycles: 105656637 heartbeat IPC: 0.5423 cumulative IPC: 0.539678 (Simulation time: 0 hr 15 min 40 sec) 
Heartbeat CPU 0 instructions: 240000002 cycles: 124157279 heartbeat IPC: 0.540522 cumulative IPC: 0.539889 (Simulation time: 0 hr 16 min 44 sec) 
Heartbeat CPU 0 instructions: 250000001 cycles: 142719471 heartbeat IPC: 0.538729 cumulative IPC: 0.539656 (Simulation time: 0 hr 17 min 48 sec) 
Heartbeat CPU 0 instructions: 260000001 cycles: 161422461 heartbeat IPC: 0.534674 cumulative IPC: 0.538819 (Simulation time: 0 hr 18 min 53 sec) 
Heartbeat CPU 0 instructions: 270000002 cycles: 180060532 heartbeat IPC: 0.536536 cumulative IPC: 0.538492 (Simulation time: 0 hr 19 min 57 sec) 
Heartbeat CPU 0 instructions: 280000002 cycles: 198717568 heartbeat IPC: 0.535991 cumulative IPC: 0.538178 (Simulation time: 0 hr 21 min 2 sec) 
Heartbeat CPU 0 instructions: 290000001 cycles: 217571121 heartbeat IPC: 0.530404 cumulative IPC: 0.537303 (Simulation time: 0 hr 22 min 7 sec) 
Heartbeat CPU 0 instructions: 300000003 cycles: 236166187 heartbeat IPC: 0.537777 cumulative IPC: 0.537351 (Simulation time: 0 hr 23 min 10 sec) 
Heartbeat CPU 0 instructions: 310000001 cycles: 254597513 heartbeat IPC: 0.542554 cumulative IPC: 0.537819 (Simulation time: 0 hr 24 min 13 sec) 
Heartbeat CPU 0 instructions: 320000003 cycles: 273237315 heartbeat IPC: 0.536487 cumulative IPC: 0.537708 (Simulation time: 0 hr 25 min 17 sec) 
Heartbeat CPU 0 instructions: 330000003 cycles: 291817811 heartbeat IPC: 0.538199 cumulative IPC: 0.537746 (Simulation time: 0 hr 26 min 23 sec) 
Heartbeat CPU 0 instructions: 340000000 cycles: 310689309 heartbeat IPC: 0.529899 cumulative IPC: 0.537178 (Simulation time: 0 hr 27 min 27 sec) 
Heartbeat CPU 0 instructions: 350000002 cycles: 329497112 heartbeat IPC: 0.531694 cumulative IPC: 0.536809 (Simulation time: 0 hr 28 min 33 sec) 
Heartbeat CPU 0 instructions: 360000004 cycles: 348233962 heartbeat IPC: 0.533708 cumulative IPC: 0.536614 (Simulation time: 0 hr 29 min 38 sec) 
Heartbeat CPU 0 instructions: 370000003 cycles: 366894225 heartbeat IPC: 0.535898 cumulative IPC: 0.536572 (Simulation time: 0 hr 30 min 42 sec) 
Heartbeat CPU 0 instructions: 380000003 cycles: 385585446 heartbeat IPC: 0.535011 cumulative IPC: 0.536485 (Simulation time: 0 hr 31 min 46 sec) 
Heartbeat CPU 0 instructions: 390000003 cycles: 403854075 heartbeat IPC: 0.547386 cumulative IPC: 0.537048 (Simulation time: 0 hr 32 min 49 sec) 
Heartbeat CPU 0 instructions: 400000000 cycles: 422740767 heartbeat IPC: 0.529473 cumulative IPC: 0.536664 (Simulation time: 0 hr 33 min 54 sec) 
Heartbeat CPU 0 instructions: 410000001 cycles: 441506990 heartbeat IPC: 0.532872 cumulative IPC: 0.536482 (Simulation time: 0 hr 34 min 59 sec) 
Heartbeat CPU 0 instructions: 420000003 cycles: 460212883 heartbeat IPC: 0.534591 cumulative IPC: 0.536396 (Simulation time: 0 hr 36 min 3 sec) 
Heartbeat CPU 0 instructions: 430000001 cycles: 478888077 heartbeat IPC: 0.53547 cumulative IPC: 0.536355 (Simulation time: 0 hr 37 min 9 sec) 
Heartbeat CPU 0 instructions: 440000004 cycles: 497413295 heartbeat IPC: 0.539805 cumulative IPC: 0.536498 (Simulation time: 0 hr 38 min 13 sec) 
Heartbeat CPU 0 instructions: 450000004 cycles: 515934527 heartbeat IPC: 0.539921 cumulative IPC: 0.536634 (Simulation time: 0 hr 39 min 19 sec) 
Heartbeat CPU 0 instructions: 460000004 cycles: 533918202 heartbeat IPC: 0.55606 cumulative IPC: 0.537356 (Simulation time: 0 hr 40 min 22 sec) 
Heartbeat CPU 0 instructions: 470000000 cycles: 552489474 heartbeat IPC: 0.538466 cumulative IPC: 0.537397 (Simulation time: 0 hr 41 min 26 sec) 
Heartbeat CPU 0 instructions: 480000002 cycles: 571069986 heartbeat IPC: 0.538198 cumulative IPC: 0.537426 (Simulation time: 0 hr 42 min 31 sec) 
Heartbeat CPU 0 instructions: 490000004 cycles: 589512460 heartbeat IPC: 0.542227 cumulative IPC: 0.53759 (Simulation time: 0 hr 43 min 35 sec) 
Heartbeat CPU 0 instructions: 500000000 cycles: 607926607 heartbeat IPC: 0.54306 cumulative IPC: 0.537771 (Simulation time: 0 hr 44 min 38 sec) 
Heartbeat CPU 0 instructions: 510000003 cycles: 626347086 heartbeat IPC: 0.542874 cumulative IPC: 0.537934 (Simulation time: 0 hr 45 min 42 sec) 
Heartbeat CPU 0 instructions: 520000002 cycles: 644629303 heartbeat IPC: 0.54698 cumulative IPC: 0.538212 (Simulation time: 0 hr 46 min 46 sec) 
Heartbeat CPU 0 instructions: 530000003 cycles: 663324761 heartbeat IPC: 0.534889 cumulative IPC: 0.538111 (Simulation time: 0 hr 47 min 51 sec) 
Heartbeat CPU 0 instructions: 540000002 cycles: 681363619 heartbeat IPC: 0.554359 cumulative IPC: 0.538575 (Simulation time: 0 hr 48 min 53 sec) 
Heartbeat CPU 0 instructions: 550000001 cycles: 700047224 heartbeat IPC: 0.535229 cumulative IPC: 0.538479 (Simulation time: 0 hr 49 min 58 sec) 
Heartbeat CPU 0 instructions: 560000004 cycles: 718772381 heartbeat IPC: 0.534041 cumulative IPC: 0.538354 (Simulation time: 0 hr 51 min 3 sec) 
Heartbeat CPU 0 instructions: 570000000 cycles: 737429135 heartbeat IPC: 0.535999 cumulative IPC: 0.538291 (Simulation time: 0 hr 52 min 6 sec) 
Heartbeat CPU 0 instructions: 580000001 cycles: 755893097 heartbeat IPC: 0.541596 cumulative IPC: 0.538377 (Simulation time: 0 hr 53 min 9 sec) 
Heartbeat CPU 0 instructions: 590000004 cycles: 774670530 heartbeat IPC: 0.532554 cumulative IPC: 0.538226 (Simulation time: 0 hr 54 min 14 sec) 
Heartbeat CPU 0 instructions: 600000001 cycles: 793163583 heartbeat IPC: 0.540743 cumulative IPC: 0.538289 (Simulation time: 0 hr 55 min 17 sec) 
Heartbeat CPU 0 instructions: 610000000 cycles: 811821581 heartbeat IPC: 0.535963 cumulative IPC: 0.538232 (Simulation time: 0 hr 56 min 21 sec) 
Heartbeat CPU 0 instructions: 620000000 cycles: 830985728 heartbeat IPC: 0.521808 cumulative IPC: 0.537829 (Simulation time: 0 hr 57 min 27 sec) 
Heartbeat CPU 0 instructions: 630000001 cycles: 849538119 heartbeat IPC: 0.539014 cumulative IPC: 0.537856 (Simulation time: 0 hr 58 min 31 sec) 
Heartbeat CPU 0 instructions: 640000001 cycles: 868134804 heartbeat IPC: 0.53773 cumulative IPC: 0.537853 (Simulation time: 0 hr 59 min 35 sec) 
Heartbeat CPU 0 instructions: 650000003 cycles: 886795105 heartbeat IPC: 0.535897 cumulative IPC: 0.53781 (Simulation time: 1 hr 0 min 40 sec) 
Heartbeat CPU 0 instructions: 660000000 cycles: 905268419 heartbeat IPC: 0.541321 cumulative IPC: 0.537886 (Simulation time: 1 hr 1 min 45 sec) 
Heartbeat CPU 0 instructions: 670000000 cycles: 924096600 heartbeat IPC: 0.531119 cumulative IPC: 0.53774 (Simulation time: 1 hr 2 min 49 sec) 
Heartbeat CPU 0 instructions: 680000002 cycles: 942671191 heartbeat IPC: 0.53837 cumulative IPC: 0.537753 (Simulation time: 1 hr 3 min 53 sec) 
Heartbeat CPU 0 instructions: 690000002 cycles: 961511366 heartbeat IPC: 0.530781 cumulative IPC: 0.537609 (Simulation time: 1 hr 4 min 58 sec) 
Heartbeat CPU 0 instructions: 700000000 cycles: 980049726 heartbeat IPC: 0.539422 cumulative IPC: 0.537645 (Simulation time: 1 hr 6 min 1 sec) 
Heartbeat CPU 0 instructions: 710000001 cycles: 998653797 heartbeat IPC: 0.537517 cumulative IPC: 0.537642 (Simulation time: 1 hr 7 min 5 sec) 
Heartbeat CPU 0 instructions: 720000002 cycles: 1017269323 heartbeat IPC: 0.537186 cumulative IPC: 0.537634 (Simulation time: 1 hr 8 min 10 sec) 
Heartbeat CPU 0 instructions: 730000002 cycles: 1036195986 heartbeat IPC: 0.528355 cumulative IPC: 0.537456 (Simulation time: 1 hr 9 min 13 sec) 
Heartbeat CPU 0 instructions: 740000001 cycles: 1054834639 heartbeat IPC: 0.536519 cumulative IPC: 0.537438 (Simulation time: 1 hr 10 min 18 sec) 
Heartbeat CPU 0 instructions: 750000003 cycles: 1073542948 heartbeat IPC: 0.534522 cumulative IPC: 0.537385 (Simulation time: 1 hr 11 min 22 sec) 
Heartbeat CPU 0 instructions: 760000001 cycles: 1092221004 heartbeat IPC: 0.535388 cumulative IPC: 0.537349 (Simulation time: 1 hr 12 min 26 sec) 
Heartbeat CPU 0 instructions: 770000003 cycles: 1111515840 heartbeat IPC: 0.518273 cumulative IPC: 0.537002 (Simulation time: 1 hr 13 min 31 sec) 
Heartbeat CPU 0 instructions: 780000000 cycles: 1130386003 heartbeat IPC: 0.529937 cumulative IPC: 0.536879 (Simulation time: 1 hr 14 min 36 sec) 
Heartbeat CPU 0 instructions: 790000004 cycles: 1149997582 heartbeat IPC: 0.509903 cumulative IPC: 0.536398 (Simulation time: 1 hr 15 min 43 sec) 
Heartbeat CPU 0 instructions: 800000003 cycles: 1168920991 heartbeat IPC: 0.528446 cumulative IPC: 0.536263 (Simulation time: 1 hr 16 min 48 sec) 
Heartbeat CPU 0 instructions: 810000002 cycles: 1188179879 heartbeat IPC: 0.519241 cumulative IPC: 0.535975 (Simulation time: 1 hr 17 min 53 sec) 
Heartbeat CPU 0 instructions: 820000000 cycles: 1207303504 heartbeat IPC: 0.522913 cumulative IPC: 0.53576 (Simulation time: 1 hr 18 min 58 sec) 
Heartbeat CPU 0 instructions: 830000001 cycles: 1226723876 heartbeat IPC: 0.514923 cumulative IPC: 0.535416 (Simulation time: 1 hr 20 min 3 sec) 
Heartbeat CPU 0 instructions: 840000000 cycles: 1246219246 heartbeat IPC: 0.512942 cumulative IPC: 0.535049 (Simulation time: 1 hr 21 min 9 sec) 
Heartbeat CPU 0 instructions: 850000001 cycles: 1265415293 heartbeat IPC: 0.520941 cumulative IPC: 0.534827 (Simulation time: 1 hr 22 min 14 sec) 
Heartbeat CPU 0 instructions: 860000002 cycles: 1284624893 heartbeat IPC: 0.520573 cumulative IPC: 0.534605 (Simulation time: 1 hr 23 min 20 sec) 
Heartbeat CPU 0 instructions: 870000000 cycles: 1304180667 heartbeat IPC: 0.511358 cumulative IPC: 0.534242 (Simulation time: 1 hr 24 min 26 sec) 
Heartbeat CPU 0 instructions: 880000001 cycles: 1323165231 heartbeat IPC: 0.526744 cumulative IPC: 0.53413 (Simulation time: 1 hr 25 min 31 sec) 
Heartbeat CPU 0 instructions: 890000001 cycles: 1342079055 heartbeat IPC: 0.528714 cumulative IPC: 0.534051 (Simulation time: 1 hr 26 min 35 sec) 
Heartbeat CPU 0 instructions: 900000003 cycles: 1360921184 heartbeat IPC: 0.530726 cumulative IPC: 0.534003 (Simulation time: 1 hr 27 min 40 sec) 
Heartbeat CPU 0 instructions: 910000001 cycles: 1379868487 heartbeat IPC: 0.52778 cumulative IPC: 0.533915 (Simulation time: 1 hr 28 min 45 sec) 
Heartbeat CPU 0 instructions: 920000001 cycles: 1398956133 heartbeat IPC: 0.523899 cumulative IPC: 0.533773 (Simulation time: 1 hr 29 min 50 sec) 
Heartbeat CPU 0 instructions: 930000001 cycles: 1417940165 heartbeat IPC: 0.526758 cumulative IPC: 0.533676 (Simulation time: 1 hr 30 min 56 sec) 
Heartbeat CPU 0 instructions: 940000003 cycles: 1436566281 heartbeat IPC: 0.536881 cumulative IPC: 0.533719 (Simulation time: 1 hr 31 min 59 sec) 
Heartbeat CPU 0 instructions: 950000002 cycles: 1455317756 heartbeat IPC: 0.533291 cumulative IPC: 0.533713 (Simulation time: 1 hr 33 min 4 sec) 
Heartbeat CPU 0 instructions: 960000000 cycles: 1473860116 heartbeat IPC: 0.539306 cumulative IPC: 0.533786 (Simulation time: 1 hr 34 min 8 sec) 
Heartbeat CPU 0 instructions: 970000000 cycles: 1492645374 heartbeat IPC: 0.532332 cumulative IPC: 0.533767 (Simulation time: 1 hr 35 min 13 sec) 
Heartbeat CPU 0 instructions: 980000000 cycles: 1511631517 heartbeat IPC: 0.5267 cumulative IPC: 0.533675 (Simulation time: 1 hr 36 min 18 sec) 
Heartbeat CPU 0 instructions: 990000003 cycles: 1530141002 heartbeat IPC: 0.540264 cumulative IPC: 0.533757 (Simulation time: 1 hr 37 min 23 sec) 
Heartbeat CPU 0 instructions: 1000000004 cycles: 1548809908 heartbeat IPC: 0.53565 cumulative IPC: 0.533781 (Simulation time: 1 hr 38 min 27 sec) 
Heartbeat CPU 0 instructions: 1010000003 cycles: 1567607190 heartbeat IPC: 0.531992 cumulative IPC: 0.533759 (Simulation time: 1 hr 39 min 32 sec) 
Heartbeat CPU 0 instructions: 1020000001 cycles: 1586456429 heartbeat IPC: 0.530525 cumulative IPC: 0.533719 (Simulation time: 1 hr 40 min 36 sec) 
Heartbeat CPU 0 instructions: 1030000003 cycles: 1605959207 heartbeat IPC: 0.512748 cumulative IPC: 0.533456 (Simulation time: 1 hr 41 min 43 sec) 
Heartbeat CPU 0 instructions: 1040000004 cycles: 1625209720 heartbeat IPC: 0.519467 cumulative IPC: 0.533285 (Simulation time: 1 hr 42 min 49 sec) 
Heartbeat CPU 0 instructions: 1050000004 cycles: 1644373115 heartbeat IPC: 0.521828 cumulative IPC: 0.533148 (Simulation time: 1 hr 43 min 53 sec) 
Heartbeat CPU 0 instructions: 1060000003 cycles: 1663649709 heartbeat IPC: 0.518764 cumulative IPC: 0.532976 (Simulation time: 1 hr 44 min 59 sec) 
Heartbeat CPU 0 instructions: 1070000004 cycles: 1683041780 heartbeat IPC: 0.515675 cumulative IPC: 0.53277 (Simulation time: 1 hr 46 min 5 sec) 
Heartbeat CPU 0 instructions: 1080000000 cycles: 1702226369 heartbeat IPC: 0.521251 cumulative IPC: 0.532637 (Simulation time: 1 hr 47 min 10 sec) 
Heartbeat CPU 0 instructions: 1090000001 cycles: 1721134768 heartbeat IPC: 0.528866 cumulative IPC: 0.532594 (Simulation time: 1 hr 48 min 15 sec) 
Heartbeat CPU 0 instructions: 1100000002 cycles: 1739812218 heartbeat IPC: 0.535405 cumulative IPC: 0.532625 (Simulation time: 1 hr 49 min 19 sec) 
Heartbeat CPU 0 instructions: 1110000000 cycles: 1758487727 heartbeat IPC: 0.535461 cumulative IPC: 0.532656 (Simulation time: 1 hr 50 min 24 sec) 
Heartbeat CPU 0 instructions: 1120000002 cycles: 1777058944 heartbeat IPC: 0.538468 cumulative IPC: 0.532718 (Simulation time: 1 hr 51 min 28 sec) 
Heartbeat CPU 0 instructions: 1130000004 cycles: 1796081940 heartbeat IPC: 0.52568 cumulative IPC: 0.532642 (Simulation time: 1 hr 52 min 33 sec) 
Heartbeat CPU 0 instructions: 1140000000 cycles: 1814686700 heartbeat IPC: 0.537497 cumulative IPC: 0.532693 (Simulation time: 1 hr 53 min 37 sec) 
Heartbeat CPU 0 instructions: 1150000000 cycles: 1833503284 heartbeat IPC: 0.531446 cumulative IPC: 0.53268 (Simulation time: 1 hr 54 min 41 sec) 
Heartbeat CPU 0 instructions: 1160000002 cycles: 1852258150 heartbeat IPC: 0.533195 cumulative IPC: 0.532685 (Simulation time: 1 hr 55 min 46 sec) 
Heartbeat CPU 0 instructions: 1170000004 cycles: 1870840501 heartbeat IPC: 0.538145 cumulative IPC: 0.532741 (Simulation time: 1 hr 56 min 49 sec) 
Heartbeat CPU 0 instructions: 1180000000 cycles: 1889697626 heartbeat IPC: 0.530303 cumulative IPC: 0.532716 (Simulation time: 1 hr 57 min 54 sec) 
Heartbeat CPU 0 instructions: 1190000003 cycles: 1908373878 heartbeat IPC: 0.535439 cumulative IPC: 0.532743 (Simulation time: 1 hr 58 min 58 sec) 
Heartbeat CPU 0 instructions: 1200000001 cycles: 1927302622 heartbeat IPC: 0.528297 cumulative IPC: 0.532698 (Simulation time: 2 hr 0 min 3 sec) 
Finished CPU 0 instructions: 1000000004 cycles: 1877234707 cumulative IPC: 0.532698 (Simulation time: 2 hr 0 min 3 sec) 

ChampSim completed all CPUs

Region of Interest Statistics

CPU 0 cumulative IPC: 0.532698 instructions: 1000000004 cycles: 1877234707
cpu0_DTLB TOTAL     ACCESS:  250465522  HIT:  231237940  MISS:   19227582
cpu0_DTLB LOAD      ACCESS:  159389971  HIT:  142585788  MISS:   16804183
cpu0_DTLB RFO       ACCESS:   91075551  HIT:   88652152  MISS:    2423399
cpu0_DTLB PREFETCH  ACCESS:          0  HIT:          0  MISS:          0
cpu0_DTLB WRITEBACK ACCESS:          0  HIT:          0  MISS:          0
cpu0_DTLB TRANSLATION ACCESS:          0  HIT:          0  MISS:          0
cpu0_DTLB PREFETCH  REQUESTED:          0  ISSUED:          0  USEFUL:          0  USELESS:          0
cpu0_DTLB AVERAGE MISS LATENCY: 12.0708 cycles
cpu0_ITLB TOTAL     ACCESS:   97083748  HIT:   95453295  MISS:    1630453
cpu0_ITLB LOAD      ACCESS:   97083748  HIT:   95453295  MISS:    1630453
cpu0_ITLB RFO       ACCESS:          0  HIT:          0  MISS:          0
cpu0_ITLB PREFETCH  ACCESS:          0  HIT:          0  MISS:          0
cpu0_ITLB WRITEBACK ACCESS:          0  HIT:          0  MISS:          0
cpu0_ITLB TRANSLATION ACCESS:          0  HIT:          0  MISS:          0
cpu0_ITLB PREFETCH  REQUESTED:          0  ISSUED:          0  USEFUL:          0  USELESS:          0
cpu0_ITLB AVERAGE MISS LATENCY: 11.0244 cycles
cpu0_L1I TOTAL     ACCESS:   91864009  HIT:   91518325  MISS:     345684
cpu0_L1I LOAD      ACCESS:   91864009  HIT:   91518325  MISS:     345684
cpu0_L1I RFO       ACCESS:          0  HIT:          0  MISS:          0
cpu0_L1I PREFETCH  ACCESS:          0  HIT:          0  MISS:          0
cpu0_L1I WRITEBACK ACCESS:          0  HIT:          0  MISS:          0
cpu0_L1I TRANSLATION ACCESS:          0  HIT:          0  MISS:          0
cpu0_L1I PREFETCH  REQUESTED:          0  ISSUED:          0  USEFUL:          0  USELESS:          0
cpu0_L1I AVERAGE MISS LATENCY: 22.297 cycles
cpu0_STLB TOTAL     ACCESS:   20858035  HIT:   18623348  MISS:    2234687
cpu0_STLB LOAD      ACCESS:   18434636  HIT:   16525500  MISS:    1909136
cpu0_STLB RFO       ACCESS:    2423399  HIT:    2097848  MISS:     325551
cpu0_STLB PREFETCH  ACCESS:          0  HIT:          0  MISS:          0
cpu0_STLB WRITEBACK ACCESS:          0  HIT:          0  MISS:          0
cpu0_STLB TRANSLATION ACCESS:          0  HIT:          0  MISS:          0
cpu0_STLB PREFETCH  REQUESTED:          0  ISSUED:          0  USEFUL:          0  USELESS:          0
cpu0_STLB AVERAGE MISS LATENCY: 9.12234 cycles
cpu0_L1D TOTAL     ACCESS:  350938808  HIT:  332438103  MISS:   18500705
cpu0_L1D LOAD      ACCESS:  172715076  HIT:  156697817  MISS:   16017259
cpu0_L1D RFO       ACCESS:  176010415  HIT:  173632329  MISS:    2378086
cpu0_L1D PREFETCH  ACCESS:          0  HIT:          0  MISS:          0
cpu0_L1D WRITEBACK ACCESS:          0  HIT:          0  MISS:          0
cpu0_L1D TRANSLATION ACCESS:    2213317  HIT:    2107957  MISS:     105360
cpu0_L1D PREFETCH  REQUESTED:          0  ISSUED:          0  USEFUL:          0  USELESS:          0
cpu0_L1D AVERAGE MISS LATENCY: 110.081 cycles
cpu0_L2C TOTAL     ACCESS:   27913530  HIT:   15604830  MISS:   12308700
cpu0_L2C LOAD      ACCESS:   16362709  HIT:    5658565  MISS:   10704144
cpu0_L2C RFO       ACCESS:    2378062  HIT:     812953  MISS:    1565109
cpu0_L2C PREFETCH  ACCESS:      28292  HIT:       3022  MISS:      25270
cpu0_L2C WRITEBACK ACCESS:    9039107  HIT:    9029101  MISS:      10006
cpu0_L2C TRANSLATION ACCESS:     105360  HIT:     101189  MISS:       4171
cpu0_L2C PREFETCH  REQUESTED:      88823  ISSUED:      85114  USEFUL:      28596  USELESS:       1917
cpu0_L2C AVERAGE MISS LATENCY: 149.411 cycles
LLC TOTAL     ACCESS:   18388440  HIT:    9185541  MISS:    9202899
LLC LOAD      ACCESS:   10698888  HIT:    2447067  MISS:    8251821
LLC RFO       ACCESS:    1565098  HIT:     685135  MISS:     879963
LLC PREFETCH  ACCESS:      50773  HIT:       5821  MISS:      44952
LLC WRITEBACK ACCESS:    6069510  HIT:    6044722  MISS:      24788
LLC TRANSLATION ACCESS:       4171  HIT:       2796  MISS:       1375
LLC PREFETCH  REQUESTED:          0  ISSUED:          0  USEFUL:          0  USELESS:          0
LLC AVERAGE MISS LATENCY: 172.272 cycles
Printing the final status 

DRAM Statistics
 CHANNEL 0
 RQ ROW_BUFFER_HIT:     332255  ROW_BUFFER_MISS:    8845511
 DBUS AVG_CONGESTED_CYCLE:    3.91395
 WQ ROW_BUFFER_HIT:    1378139  ROW_BUFFER_MISS:    2962640  FULL:          0


CPU 0 Branch Prediction Accuracy: 95.4628% MPKI: 9.43133 Average ROB Occupancy at Mispredict: 70.5574
Branch type MPKI
BRANCH_DIRECT_JUMP: 1.4e-05
BRANCH_INDIRECT: 0.124155
BRANCH_CONDITIONAL: 8.75593
BRANCH_DIRECT_CALL: 7e-06
BRANCH_INDIRECT_CALL: 0.156659
BRANCH_RETURN: 0.394565

***************** Done with 620.omnetpp_s-874B.champsimtrace.xz using ppf-spp-dev-2, on Tue Apr 19 21:54:53 CDT 2022 ******************
