Started running file 600.perlbench_s-210B.champsimtrace.xz at time Tue Apr 19 16:29:47 CDT 2022 with prefetcher ppf-spp-dev-2

*** ChampSim Multicore Out-of-Order Simulator ***

Warmup Instructions: 200000000
Simulation Instructions: 1000000000
Number of CPUs: 1
Off-chip DRAM Size: 4 GiB Channels: 1 Width: 64-bit Data Rate: 3200 MT/s

VirtualMemory physical capacity: 8588881920 num_ppages: 2096895
VirtualMemory page size: 4096 log2_page_size: 12

CPU 0 runs /home/faculty/p/pgratz/dpc3_traces/600.perlbench_s-210B.champsimtrace.xz
CPU 0 Bimodal branch predictor
Basic BTB sets: 1024 ways: 8 indirect buffer size: 4096 RAS size: 64
cpu0_L2C PPF SPP DEV Prefetcher
Heartbeat CPU 0 instructions: 10000003 cycles: 2511520 heartbeat IPC: 3.98165 cumulative IPC: 3.98165 (Simulation time: 0 hr 0 min 30 sec) 
Heartbeat CPU 0 instructions: 20000003 cycles: 5011520 heartbeat IPC: 4 cumulative IPC: 3.99081 (Simulation time: 0 hr 1 min 3 sec) 
Heartbeat CPU 0 instructions: 30000003 cycles: 7511520 heartbeat IPC: 4 cumulative IPC: 3.99387 (Simulation time: 0 hr 1 min 37 sec) 
Heartbeat CPU 0 instructions: 40000001 cycles: 10011983 heartbeat IPC: 3.99926 cumulative IPC: 3.99521 (Simulation time: 0 hr 2 min 9 sec) 
Heartbeat CPU 0 instructions: 50000003 cycles: 12512569 heartbeat IPC: 3.99906 cumulative IPC: 3.99598 (Simulation time: 0 hr 2 min 41 sec) 
Heartbeat CPU 0 instructions: 60000002 cycles: 15013098 heartbeat IPC: 3.99915 cumulative IPC: 3.99651 (Simulation time: 0 hr 3 min 13 sec) 
Heartbeat CPU 0 instructions: 70000002 cycles: 17513098 heartbeat IPC: 4 cumulative IPC: 3.99701 (Simulation time: 0 hr 3 min 46 sec) 
Heartbeat CPU 0 instructions: 80000002 cycles: 20013098 heartbeat IPC: 4 cumulative IPC: 3.99738 (Simulation time: 0 hr 4 min 19 sec) 
Heartbeat CPU 0 instructions: 90000000 cycles: 22521340 heartbeat IPC: 3.98686 cumulative IPC: 3.99621 (Simulation time: 0 hr 4 min 49 sec) 
Heartbeat CPU 0 instructions: 100000000 cycles: 25022557 heartbeat IPC: 3.99805 cumulative IPC: 3.99639 (Simulation time: 0 hr 5 min 21 sec) 
Heartbeat CPU 0 instructions: 110000000 cycles: 27522557 heartbeat IPC: 4 cumulative IPC: 3.99672 (Simulation time: 0 hr 5 min 54 sec) 
Heartbeat CPU 0 instructions: 120000000 cycles: 30022557 heartbeat IPC: 4 cumulative IPC: 3.99699 (Simulation time: 0 hr 6 min 27 sec) 
Heartbeat CPU 0 instructions: 130000002 cycles: 32523246 heartbeat IPC: 3.9989 cumulative IPC: 3.99714 (Simulation time: 0 hr 6 min 58 sec) 
Heartbeat CPU 0 instructions: 140000001 cycles: 35023516 heartbeat IPC: 3.99957 cumulative IPC: 3.99731 (Simulation time: 0 hr 7 min 30 sec) 
Heartbeat CPU 0 instructions: 150000002 cycles: 37523827 heartbeat IPC: 3.9995 cumulative IPC: 3.99746 (Simulation time: 0 hr 8 min 3 sec) 
Heartbeat CPU 0 instructions: 160000002 cycles: 40023827 heartbeat IPC: 4 cumulative IPC: 3.99762 (Simulation time: 0 hr 8 min 36 sec) 
Heartbeat CPU 0 instructions: 170000003 cycles: 42525202 heartbeat IPC: 3.9978 cumulative IPC: 3.99763 (Simulation time: 0 hr 9 min 8 sec) 
Heartbeat CPU 0 instructions: 180000003 cycles: 45025202 heartbeat IPC: 4 cumulative IPC: 3.99776 (Simulation time: 0 hr 9 min 41 sec) 
Heartbeat CPU 0 instructions: 190000003 cycles: 47525202 heartbeat IPC: 4 cumulative IPC: 3.99788 (Simulation time: 0 hr 10 min 14 sec) 
Heartbeat CPU 0 instructions: 200000003 cycles: 50026058 heartbeat IPC: 3.99863 cumulative IPC: 3.99792 (Simulation time: 0 hr 10 min 45 sec) 

Warmup complete CPU 0 instructions: 200000003 cycles: 50026058 (Simulation time: 0 hr 10 min 45 sec) 

Heartbeat CPU 0 instructions: 210000003 cycles: 55331602 heartbeat IPC: 1.88482 cumulative IPC: 1.88482 (Simulation time: 0 hr 11 min 26 sec) 
Heartbeat CPU 0 instructions: 220000003 cycles: 60692223 heartbeat IPC: 1.86546 cumulative IPC: 1.87509 (Simulation time: 0 hr 12 min 8 sec) 
Heartbeat CPU 0 instructions: 230000003 cycles: 66002036 heartbeat IPC: 1.88331 cumulative IPC: 1.87782 (Simulation time: 0 hr 12 min 50 sec) 
Heartbeat CPU 0 instructions: 240000004 cycles: 71217862 heartbeat IPC: 1.91724 cumulative IPC: 1.88752 (Simulation time: 0 hr 13 min 32 sec) 
Heartbeat CPU 0 instructions: 250000004 cycles: 76145830 heartbeat IPC: 2.02923 cumulative IPC: 1.91426 (Simulation time: 0 hr 14 min 9 sec) 
Heartbeat CPU 0 instructions: 260000001 cycles: 81299076 heartbeat IPC: 1.94052 cumulative IPC: 1.91859 (Simulation time: 0 hr 14 min 51 sec) 
Heartbeat CPU 0 instructions: 270000002 cycles: 86588168 heartbeat IPC: 1.89068 cumulative IPC: 1.91455 (Simulation time: 0 hr 15 min 32 sec) 
Heartbeat CPU 0 instructions: 280000003 cycles: 92033772 heartbeat IPC: 1.83634 cumulative IPC: 1.90441 (Simulation time: 0 hr 16 min 11 sec) 
Heartbeat CPU 0 instructions: 290000000 cycles: 97241780 heartbeat IPC: 1.92012 cumulative IPC: 1.90614 (Simulation time: 0 hr 16 min 52 sec) 
Heartbeat CPU 0 instructions: 300000003 cycles: 102740611 heartbeat IPC: 1.81857 cumulative IPC: 1.89701 (Simulation time: 0 hr 17 min 35 sec) 
Heartbeat CPU 0 instructions: 310000002 cycles: 108064737 heartbeat IPC: 1.87824 cumulative IPC: 1.89529 (Simulation time: 0 hr 18 min 18 sec) 
Heartbeat CPU 0 instructions: 320000001 cycles: 113243864 heartbeat IPC: 1.93083 cumulative IPC: 1.8982 (Simulation time: 0 hr 18 min 58 sec) 
Heartbeat CPU 0 instructions: 330000004 cycles: 118418129 heartbeat IPC: 1.93264 cumulative IPC: 1.90081 (Simulation time: 0 hr 19 min 36 sec) 
Heartbeat CPU 0 instructions: 340000002 cycles: 123792368 heartbeat IPC: 1.86073 cumulative IPC: 1.89789 (Simulation time: 0 hr 20 min 14 sec) 
Heartbeat CPU 0 instructions: 350000003 cycles: 129277093 heartbeat IPC: 1.82325 cumulative IPC: 1.89272 (Simulation time: 0 hr 20 min 52 sec) 
Heartbeat CPU 0 instructions: 360000002 cycles: 134510437 heartbeat IPC: 1.91082 cumulative IPC: 1.89384 (Simulation time: 0 hr 21 min 33 sec) 
Heartbeat CPU 0 instructions: 370000001 cycles: 139935450 heartbeat IPC: 1.84331 cumulative IPC: 1.89079 (Simulation time: 0 hr 22 min 11 sec) 
Heartbeat CPU 0 instructions: 380000003 cycles: 145330204 heartbeat IPC: 1.85365 cumulative IPC: 1.88869 (Simulation time: 0 hr 22 min 52 sec) 
Heartbeat CPU 0 instructions: 390000000 cycles: 150654127 heartbeat IPC: 1.87831 cumulative IPC: 1.88814 (Simulation time: 0 hr 23 min 33 sec) 
Heartbeat CPU 0 instructions: 400000001 cycles: 155826023 heartbeat IPC: 1.93353 cumulative IPC: 1.89036 (Simulation time: 0 hr 24 min 14 sec) 
Heartbeat CPU 0 instructions: 410000000 cycles: 160770359 heartbeat IPC: 2.02252 cumulative IPC: 1.89626 (Simulation time: 0 hr 24 min 52 sec) 
Heartbeat CPU 0 instructions: 420000001 cycles: 165967049 heartbeat IPC: 1.9243 cumulative IPC: 1.89752 (Simulation time: 0 hr 25 min 31 sec) 
Heartbeat CPU 0 instructions: 430000000 cycles: 171640392 heartbeat IPC: 1.76263 cumulative IPC: 1.89122 (Simulation time: 0 hr 26 min 8 sec) 
Heartbeat CPU 0 instructions: 440000000 cycles: 177012895 heartbeat IPC: 1.86133 cumulative IPC: 1.88996 (Simulation time: 0 hr 26 min 48 sec) 
Heartbeat CPU 0 instructions: 450000001 cycles: 182400317 heartbeat IPC: 1.85618 cumulative IPC: 1.88858 (Simulation time: 0 hr 27 min 26 sec) 
Heartbeat CPU 0 instructions: 460000000 cycles: 187846992 heartbeat IPC: 1.83598 cumulative IPC: 1.88651 (Simulation time: 0 hr 28 min 6 sec) 
Heartbeat CPU 0 instructions: 470000001 cycles: 196230176 heartbeat IPC: 1.19286 cumulative IPC: 1.84673 (Simulation time: 0 hr 28 min 48 sec) 
Heartbeat CPU 0 instructions: 480000002 cycles: 204188272 heartbeat IPC: 1.25658 cumulative IPC: 1.81627 (Simulation time: 0 hr 29 min 26 sec) 
Heartbeat CPU 0 instructions: 490000001 cycles: 210241442 heartbeat IPC: 1.65203 cumulative IPC: 1.81006 (Simulation time: 0 hr 30 min 4 sec) 
Heartbeat CPU 0 instructions: 500000003 cycles: 216768302 heartbeat IPC: 1.53213 cumulative IPC: 1.79918 (Simulation time: 0 hr 30 min 41 sec) 
Heartbeat CPU 0 instructions: 510000001 cycles: 226292722 heartbeat IPC: 1.04993 cumulative IPC: 1.7587 (Simulation time: 0 hr 31 min 20 sec) 
Heartbeat CPU 0 instructions: 520000000 cycles: 240148881 heartbeat IPC: 0.721701 cumulative IPC: 1.68312 (Simulation time: 0 hr 32 min 6 sec) 
Heartbeat CPU 0 instructions: 530000003 cycles: 253067809 heartbeat IPC: 0.774058 cumulative IPC: 1.62528 (Simulation time: 0 hr 32 min 49 sec) 
Heartbeat CPU 0 instructions: 540000001 cycles: 263882465 heartbeat IPC: 0.924671 cumulative IPC: 1.58985 (Simulation time: 0 hr 33 min 30 sec) 
Heartbeat CPU 0 instructions: 550000002 cycles: 277473093 heartbeat IPC: 0.735801 cumulative IPC: 1.53882 (Simulation time: 0 hr 34 min 15 sec) 
Heartbeat CPU 0 instructions: 560000000 cycles: 283634898 heartbeat IPC: 1.6229 cumulative IPC: 1.54104 (Simulation time: 0 hr 34 min 55 sec) 
Heartbeat CPU 0 instructions: 570000000 cycles: 289609074 heartbeat IPC: 1.67387 cumulative IPC: 1.54435 (Simulation time: 0 hr 35 min 34 sec) 
Heartbeat CPU 0 instructions: 580000000 cycles: 295788408 heartbeat IPC: 1.6183 cumulative IPC: 1.54621 (Simulation time: 0 hr 36 min 16 sec) 
Heartbeat CPU 0 instructions: 590000001 cycles: 301918789 heartbeat IPC: 1.63122 cumulative IPC: 1.54828 (Simulation time: 0 hr 36 min 57 sec) 
Heartbeat CPU 0 instructions: 600000000 cycles: 312156944 heartbeat IPC: 0.976738 cumulative IPC: 1.52596 (Simulation time: 0 hr 37 min 40 sec) 
Heartbeat CPU 0 instructions: 610000000 cycles: 324773904 heartbeat IPC: 0.792584 cumulative IPC: 1.49228 (Simulation time: 0 hr 38 min 24 sec) 
Heartbeat CPU 0 instructions: 620000001 cycles: 337752458 heartbeat IPC: 0.770502 cumulative IPC: 1.45972 (Simulation time: 0 hr 39 min 7 sec) 
Heartbeat CPU 0 instructions: 630000002 cycles: 347527352 heartbeat IPC: 1.02303 cumulative IPC: 1.44537 (Simulation time: 0 hr 39 min 52 sec) 
Heartbeat CPU 0 instructions: 640000000 cycles: 358020883 heartbeat IPC: 0.952968 cumulative IPC: 1.4286 (Simulation time: 0 hr 40 min 39 sec) 
Heartbeat CPU 0 instructions: 650000000 cycles: 371139484 heartbeat IPC: 0.762276 cumulative IPC: 1.40137 (Simulation time: 0 hr 41 min 25 sec) 
Heartbeat CPU 0 instructions: 660000000 cycles: 383799928 heartbeat IPC: 0.789862 cumulative IPC: 1.37818 (Simulation time: 0 hr 42 min 10 sec) 
Heartbeat CPU 0 instructions: 670000003 cycles: 391915815 heartbeat IPC: 1.23215 cumulative IPC: 1.37471 (Simulation time: 0 hr 42 min 55 sec) 
Heartbeat CPU 0 instructions: 680000000 cycles: 406432249 heartbeat IPC: 0.688874 cumulative IPC: 1.34678 (Simulation time: 0 hr 43 min 44 sec) 
Heartbeat CPU 0 instructions: 690000001 cycles: 419496985 heartbeat IPC: 0.765419 cumulative IPC: 1.32622 (Simulation time: 0 hr 44 min 31 sec) 
Heartbeat CPU 0 instructions: 700000000 cycles: 424566520 heartbeat IPC: 1.97257 cumulative IPC: 1.33497 (Simulation time: 0 hr 45 min 14 sec) 
Heartbeat CPU 0 instructions: 710000003 cycles: 429945555 heartbeat IPC: 1.85907 cumulative IPC: 1.34239 (Simulation time: 0 hr 45 min 54 sec) 
Heartbeat CPU 0 instructions: 720000003 cycles: 435377519 heartbeat IPC: 1.84095 cumulative IPC: 1.34942 (Simulation time: 0 hr 46 min 33 sec) 
Heartbeat CPU 0 instructions: 730000001 cycles: 440603635 heartbeat IPC: 1.91347 cumulative IPC: 1.35696 (Simulation time: 0 hr 47 min 12 sec) 
Heartbeat CPU 0 instructions: 740000002 cycles: 445729230 heartbeat IPC: 1.95099 cumulative IPC: 1.36466 (Simulation time: 0 hr 47 min 52 sec) 
Heartbeat CPU 0 instructions: 750000001 cycles: 450842201 heartbeat IPC: 1.95581 cumulative IPC: 1.3722 (Simulation time: 0 hr 48 min 35 sec) 
Heartbeat CPU 0 instructions: 760000001 cycles: 456037324 heartbeat IPC: 1.92488 cumulative IPC: 1.37927 (Simulation time: 0 hr 49 min 17 sec) 
Heartbeat CPU 0 instructions: 770000002 cycles: 461196104 heartbeat IPC: 1.93844 cumulative IPC: 1.38629 (Simulation time: 0 hr 49 min 59 sec) 
Heartbeat CPU 0 instructions: 780000002 cycles: 466603659 heartbeat IPC: 1.84926 cumulative IPC: 1.3923 (Simulation time: 0 hr 50 min 39 sec) 
Heartbeat CPU 0 instructions: 790000000 cycles: 471759940 heartbeat IPC: 1.93938 cumulative IPC: 1.39899 (Simulation time: 0 hr 51 min 20 sec) 
Heartbeat CPU 0 instructions: 800000004 cycles: 477107940 heartbeat IPC: 1.86986 cumulative IPC: 1.40488 (Simulation time: 0 hr 52 min 1 sec) 
Heartbeat CPU 0 instructions: 810000001 cycles: 482120754 heartbeat IPC: 1.99489 cumulative IPC: 1.41173 (Simulation time: 0 hr 52 min 43 sec) 
Heartbeat CPU 0 instructions: 820000002 cycles: 487033664 heartbeat IPC: 2.03545 cumulative IPC: 1.41874 (Simulation time: 0 hr 53 min 19 sec) 
Heartbeat CPU 0 instructions: 830000004 cycles: 491928377 heartbeat IPC: 2.04302 cumulative IPC: 1.42565 (Simulation time: 0 hr 53 min 54 sec) 
Heartbeat CPU 0 instructions: 840000003 cycles: 496970768 heartbeat IPC: 1.98319 cumulative IPC: 1.43194 (Simulation time: 0 hr 54 min 34 sec) 
Heartbeat CPU 0 instructions: 850000002 cycles: 502279808 heartbeat IPC: 1.88358 cumulative IPC: 1.43725 (Simulation time: 0 hr 55 min 14 sec) 
Heartbeat CPU 0 instructions: 860000000 cycles: 507633250 heartbeat IPC: 1.86796 cumulative IPC: 1.44229 (Simulation time: 0 hr 55 min 54 sec) 
Heartbeat CPU 0 instructions: 870000004 cycles: 513071658 heartbeat IPC: 1.83877 cumulative IPC: 1.44694 (Simulation time: 0 hr 56 min 34 sec) 
Heartbeat CPU 0 instructions: 880000001 cycles: 518283508 heartbeat IPC: 1.9187 cumulative IPC: 1.45219 (Simulation time: 0 hr 57 min 16 sec) 
Heartbeat CPU 0 instructions: 890000001 cycles: 523558465 heartbeat IPC: 1.89575 cumulative IPC: 1.45713 (Simulation time: 0 hr 57 min 58 sec) 
Heartbeat CPU 0 instructions: 900000001 cycles: 528649412 heartbeat IPC: 1.96427 cumulative IPC: 1.46253 (Simulation time: 0 hr 58 min 39 sec) 
Heartbeat CPU 0 instructions: 910000002 cycles: 534004887 heartbeat IPC: 1.86725 cumulative IPC: 1.46701 (Simulation time: 0 hr 59 min 17 sec) 
Heartbeat CPU 0 instructions: 920000001 cycles: 539454961 heartbeat IPC: 1.83484 cumulative IPC: 1.4711 (Simulation time: 0 hr 59 min 57 sec) 
Heartbeat CPU 0 instructions: 930000002 cycles: 544623499 heartbeat IPC: 1.93478 cumulative IPC: 1.47595 (Simulation time: 1 hr 0 min 36 sec) 
Heartbeat CPU 0 instructions: 940000002 cycles: 550180945 heartbeat IPC: 1.79939 cumulative IPC: 1.47954 (Simulation time: 1 hr 1 min 15 sec) 
Heartbeat CPU 0 instructions: 950000003 cycles: 555840059 heartbeat IPC: 1.76706 cumulative IPC: 1.48276 (Simulation time: 1 hr 1 min 57 sec) 
Heartbeat CPU 0 instructions: 960000000 cycles: 560846502 heartbeat IPC: 1.99743 cumulative IPC: 1.4878 (Simulation time: 1 hr 2 min 40 sec) 
Heartbeat CPU 0 instructions: 970000000 cycles: 565902373 heartbeat IPC: 1.9779 cumulative IPC: 1.49261 (Simulation time: 1 hr 3 min 23 sec) 
Heartbeat CPU 0 instructions: 980000000 cycles: 571323521 heartbeat IPC: 1.84463 cumulative IPC: 1.49627 (Simulation time: 1 hr 4 min 4 sec) 
Heartbeat CPU 0 instructions: 990000004 cycles: 576396029 heartbeat IPC: 1.97141 cumulative IPC: 1.50085 (Simulation time: 1 hr 4 min 47 sec) 
Heartbeat CPU 0 instructions: 1000000000 cycles: 581478447 heartbeat IPC: 1.96757 cumulative IPC: 1.50531 (Simulation time: 1 hr 5 min 29 sec) 
Heartbeat CPU 0 instructions: 1010000002 cycles: 586259578 heartbeat IPC: 2.09156 cumulative IPC: 1.51054 (Simulation time: 1 hr 6 min 8 sec) 
Heartbeat CPU 0 instructions: 1020000004 cycles: 591176778 heartbeat IPC: 2.03368 cumulative IPC: 1.51529 (Simulation time: 1 hr 6 min 51 sec) 
Heartbeat CPU 0 instructions: 1030000000 cycles: 596541353 heartbeat IPC: 1.86408 cumulative IPC: 1.51871 (Simulation time: 1 hr 7 min 31 sec) 
Heartbeat CPU 0 instructions: 1040000001 cycles: 601765261 heartbeat IPC: 1.91428 cumulative IPC: 1.52246 (Simulation time: 1 hr 8 min 12 sec) 
Heartbeat CPU 0 instructions: 1050000000 cycles: 606815868 heartbeat IPC: 1.97996 cumulative IPC: 1.52661 (Simulation time: 1 hr 8 min 53 sec) 
Heartbeat CPU 0 instructions: 1060000002 cycles: 612064561 heartbeat IPC: 1.90524 cumulative IPC: 1.53014 (Simulation time: 1 hr 9 min 36 sec) 
Heartbeat CPU 0 instructions: 1070000000 cycles: 617173543 heartbeat IPC: 1.95734 cumulative IPC: 1.53399 (Simulation time: 1 hr 10 min 17 sec) 
Heartbeat CPU 0 instructions: 1080000004 cycles: 622100665 heartbeat IPC: 2.02958 cumulative IPC: 1.53826 (Simulation time: 1 hr 10 min 56 sec) 
Heartbeat CPU 0 instructions: 1090000000 cycles: 627349637 heartbeat IPC: 1.90513 cumulative IPC: 1.5416 (Simulation time: 1 hr 11 min 36 sec) 
Heartbeat CPU 0 instructions: 1100000000 cycles: 632942586 heartbeat IPC: 1.78797 cumulative IPC: 1.54396 (Simulation time: 1 hr 12 min 13 sec) 
Heartbeat CPU 0 instructions: 1110000000 cycles: 637900827 heartbeat IPC: 2.01684 cumulative IPC: 1.54795 (Simulation time: 1 hr 12 min 53 sec) 
Heartbeat CPU 0 instructions: 1120000001 cycles: 643044183 heartbeat IPC: 1.94426 cumulative IPC: 1.55139 (Simulation time: 1 hr 13 min 35 sec) 
Heartbeat CPU 0 instructions: 1130000002 cycles: 648484472 heartbeat IPC: 1.83814 cumulative IPC: 1.55399 (Simulation time: 1 hr 14 min 14 sec) 
Heartbeat CPU 0 instructions: 1140000003 cycles: 653709010 heartbeat IPC: 1.91404 cumulative IPC: 1.55711 (Simulation time: 1 hr 14 min 56 sec) 
Heartbeat CPU 0 instructions: 1150000000 cycles: 658770900 heartbeat IPC: 1.97555 cumulative IPC: 1.56059 (Simulation time: 1 hr 15 min 39 sec) 
Heartbeat CPU 0 instructions: 1160000001 cycles: 663703347 heartbeat IPC: 2.02739 cumulative IPC: 1.56434 (Simulation time: 1 hr 16 min 21 sec) 
Heartbeat CPU 0 instructions: 1170000000 cycles: 668652414 heartbeat IPC: 2.02058 cumulative IPC: 1.56799 (Simulation time: 1 hr 17 min 2 sec) 
Heartbeat CPU 0 instructions: 1180000000 cycles: 674112575 heartbeat IPC: 1.83145 cumulative IPC: 1.5703 (Simulation time: 1 hr 17 min 40 sec) 
Heartbeat CPU 0 instructions: 1190000000 cycles: 679349135 heartbeat IPC: 1.90965 cumulative IPC: 1.57312 (Simulation time: 1 hr 18 min 21 sec) 
Heartbeat CPU 0 instructions: 1200000000 cycles: 684749605 heartbeat IPC: 1.85169 cumulative IPC: 1.57549 (Simulation time: 1 hr 19 min 0 sec) 
Finished CPU 0 instructions: 1000000001 cycles: 634723548 cumulative IPC: 1.57549 (Simulation time: 1 hr 19 min 0 sec) 

ChampSim completed all CPUs

Region of Interest Statistics

CPU 0 cumulative IPC: 1.57549 instructions: 1000000001 cycles: 634723548
cpu0_DTLB TOTAL     ACCESS:  184704853  HIT:  183655600  MISS:    1049253
cpu0_DTLB LOAD      ACCESS:  102720361  HIT:  101769341  MISS:     951020
cpu0_DTLB RFO       ACCESS:   81984492  HIT:   81886259  MISS:      98233
cpu0_DTLB PREFETCH  ACCESS:          0  HIT:          0  MISS:          0
cpu0_DTLB WRITEBACK ACCESS:          0  HIT:          0  MISS:          0
cpu0_DTLB TRANSLATION ACCESS:          0  HIT:          0  MISS:          0
cpu0_DTLB PREFETCH  REQUESTED:          0  ISSUED:          0  USEFUL:          0  USELESS:          0
cpu0_DTLB AVERAGE MISS LATENCY: 11.9755 cycles
cpu0_ITLB TOTAL     ACCESS:   72541303  HIT:   72422873  MISS:     118430
cpu0_ITLB LOAD      ACCESS:   72541303  HIT:   72422873  MISS:     118430
cpu0_ITLB RFO       ACCESS:          0  HIT:          0  MISS:          0
cpu0_ITLB PREFETCH  ACCESS:          0  HIT:          0  MISS:          0
cpu0_ITLB WRITEBACK ACCESS:          0  HIT:          0  MISS:          0
cpu0_ITLB TRANSLATION ACCESS:          0  HIT:          0  MISS:          0
cpu0_ITLB PREFETCH  REQUESTED:          0  ISSUED:          0  USEFUL:          0  USELESS:          0
cpu0_ITLB AVERAGE MISS LATENCY: 11.3321 cycles
cpu0_L1I TOTAL     ACCESS:   56450174  HIT:   54887162  MISS:    1563012
cpu0_L1I LOAD      ACCESS:   56450174  HIT:   54887162  MISS:    1563012
cpu0_L1I RFO       ACCESS:          0  HIT:          0  MISS:          0
cpu0_L1I PREFETCH  ACCESS:          0  HIT:          0  MISS:          0
cpu0_L1I WRITEBACK ACCESS:          0  HIT:          0  MISS:          0
cpu0_L1I TRANSLATION ACCESS:          0  HIT:          0  MISS:          0
cpu0_L1I PREFETCH  REQUESTED:          0  ISSUED:          0  USEFUL:          0  USELESS:          0
cpu0_L1I AVERAGE MISS LATENCY: 13.3813 cycles
cpu0_STLB TOTAL     ACCESS:    1167683  HIT:    1162184  MISS:       5499
cpu0_STLB LOAD      ACCESS:    1069450  HIT:    1064603  MISS:       4847
cpu0_STLB RFO       ACCESS:      98233  HIT:      97581  MISS:        652
cpu0_STLB PREFETCH  ACCESS:          0  HIT:          0  MISS:          0
cpu0_STLB WRITEBACK ACCESS:          0  HIT:          0  MISS:          0
cpu0_STLB TRANSLATION ACCESS:          0  HIT:          0  MISS:          0
cpu0_STLB PREFETCH  REQUESTED:          0  ISSUED:          0  USEFUL:          0  USELESS:          0
cpu0_STLB AVERAGE MISS LATENCY: 189.793 cycles
cpu0_L1D TOTAL     ACCESS:  330387401  HIT:  329326803  MISS:    1060598
cpu0_L1D LOAD      ACCESS:  122660922  HIT:  121682235  MISS:     978687
cpu0_L1D RFO       ACCESS:  207720999  HIT:  207640255  MISS:      80744
cpu0_L1D PREFETCH  ACCESS:          0  HIT:          0  MISS:          0
cpu0_L1D WRITEBACK ACCESS:          0  HIT:          0  MISS:          0
cpu0_L1D TRANSLATION ACCESS:       5480  HIT:       4313  MISS:       1167
cpu0_L1D PREFETCH  REQUESTED:          0  ISSUED:          0  USEFUL:          0  USELESS:          0
cpu0_L1D AVERAGE MISS LATENCY: 60.6811 cycles
cpu0_L2C TOTAL     ACCESS:    3200596  HIT:    2737339  MISS:     463257
cpu0_L2C LOAD      ACCESS:    2541636  HIT:    2150353  MISS:     391283
cpu0_L2C RFO       ACCESS:      80737  HIT:      52202  MISS:      28535
cpu0_L2C PREFETCH  ACCESS:     314715  HIT:     272675  MISS:      42040
cpu0_L2C WRITEBACK ACCESS:     262341  HIT:     261180  MISS:       1161
cpu0_L2C TRANSLATION ACCESS:       1167  HIT:        929  MISS:        238
cpu0_L2C PREFETCH  REQUESTED:     487083  ISSUED:     411017  USEFUL:      33356  USELESS:      12637
cpu0_L2C AVERAGE MISS LATENCY: 129 cycles
LLC TOTAL     ACCESS:     635304  HIT:     277119  MISS:     358185
LLC LOAD      ACCESS:     388184  HIT:     107619  MISS:     280565
LLC RFO       ACCESS:      28524  HIT:       7969  MISS:      20555
LLC PREFETCH  ACCESS:     126259  HIT:      70153  MISS:      56106
LLC WRITEBACK ACCESS:      92099  HIT:      91203  MISS:        896
LLC TRANSLATION ACCESS:        238  HIT:        175  MISS:         63
LLC PREFETCH  REQUESTED:          0  ISSUED:          0  USEFUL:          0  USELESS:          0
LLC AVERAGE MISS LATENCY: 158.172 cycles
Printing the final status 

DRAM Statistics
 CHANNEL 0
 RQ ROW_BUFFER_HIT:      40318  ROW_BUFFER_MISS:     316969
 DBUS AVG_CONGESTED_CYCLE:    3.82881
 WQ ROW_BUFFER_HIT:      34596  ROW_BUFFER_MISS:      26552  FULL:          0


CPU 0 Branch Prediction Accuracy: 96.6639% MPKI: 4.95919 Average ROB Occupancy at Mispredict: 104.259
Branch type MPKI
BRANCH_DIRECT_JUMP: 0.001678
BRANCH_INDIRECT: 0.310558
BRANCH_CONDITIONAL: 4.50517
BRANCH_DIRECT_CALL: 0.001795
BRANCH_INDIRECT_CALL: 0.134027
BRANCH_RETURN: 0.005954

***************** Done with 600.perlbench_s-210B.champsimtrace.xz using ppf-spp-dev-2, on Tue Apr 19 17:48:50 CDT 2022 ******************
