Started running file 654.roms_s-842B.champsimtrace.xz at time Tue Apr 19 22:51:14 CDT 2022 with prefetcher ppf-spp-dev-2

*** ChampSim Multicore Out-of-Order Simulator ***

Warmup Instructions: 200000000
Simulation Instructions: 1000000000
Number of CPUs: 1
Off-chip DRAM Size: 4 GiB Channels: 1 Width: 64-bit Data Rate: 3200 MT/s

VirtualMemory physical capacity: 8588881920 num_ppages: 2096895
VirtualMemory page size: 4096 log2_page_size: 12

CPU 0 runs /home/faculty/p/pgratz/dpc3_traces/654.roms_s-842B.champsimtrace.xz
CPU 0 Bimodal branch predictor
Basic BTB sets: 1024 ways: 8 indirect buffer size: 4096 RAS size: 64
cpu0_L2C PPF SPP DEV Prefetcher
Heartbeat CPU 0 instructions: 10000003 cycles: 2501440 heartbeat IPC: 3.9977 cumulative IPC: 3.9977 (Simulation time: 0 hr 0 min 29 sec) 
Heartbeat CPU 0 instructions: 20000003 cycles: 5003216 heartbeat IPC: 3.99716 cumulative IPC: 3.99743 (Simulation time: 0 hr 0 min 59 sec) 
Heartbeat CPU 0 instructions: 30000000 cycles: 7504021 heartbeat IPC: 3.99871 cumulative IPC: 3.99786 (Simulation time: 0 hr 1 min 28 sec) 
Heartbeat CPU 0 instructions: 40000001 cycles: 10005954 heartbeat IPC: 3.99691 cumulative IPC: 3.99762 (Simulation time: 0 hr 1 min 57 sec) 
Heartbeat CPU 0 instructions: 50000002 cycles: 12510306 heartbeat IPC: 3.99305 cumulative IPC: 3.99671 (Simulation time: 0 hr 2 min 28 sec) 
Heartbeat CPU 0 instructions: 60000000 cycles: 15011756 heartbeat IPC: 3.99768 cumulative IPC: 3.99687 (Simulation time: 0 hr 2 min 57 sec) 
Heartbeat CPU 0 instructions: 70000001 cycles: 17513043 heartbeat IPC: 3.99794 cumulative IPC: 3.99702 (Simulation time: 0 hr 3 min 26 sec) 
Heartbeat CPU 0 instructions: 80000003 cycles: 20014494 heartbeat IPC: 3.99768 cumulative IPC: 3.9971 (Simulation time: 0 hr 3 min 56 sec) 
Heartbeat CPU 0 instructions: 90000003 cycles: 22516266 heartbeat IPC: 3.99717 cumulative IPC: 3.99711 (Simulation time: 0 hr 4 min 25 sec) 
Heartbeat CPU 0 instructions: 100000002 cycles: 25016910 heartbeat IPC: 3.99897 cumulative IPC: 3.9973 (Simulation time: 0 hr 4 min 54 sec) 
Heartbeat CPU 0 instructions: 110000000 cycles: 27519166 heartbeat IPC: 3.99639 cumulative IPC: 3.99721 (Simulation time: 0 hr 5 min 24 sec) 
Heartbeat CPU 0 instructions: 120000002 cycles: 30020133 heartbeat IPC: 3.99845 cumulative IPC: 3.99732 (Simulation time: 0 hr 5 min 53 sec) 
Heartbeat CPU 0 instructions: 130000002 cycles: 32520455 heartbeat IPC: 3.99948 cumulative IPC: 3.99748 (Simulation time: 0 hr 6 min 21 sec) 
Heartbeat CPU 0 instructions: 140000003 cycles: 35022389 heartbeat IPC: 3.99691 cumulative IPC: 3.99744 (Simulation time: 0 hr 6 min 49 sec) 
Heartbeat CPU 0 instructions: 150000002 cycles: 37524322 heartbeat IPC: 3.99691 cumulative IPC: 3.99741 (Simulation time: 0 hr 7 min 17 sec) 
Heartbeat CPU 0 instructions: 160000002 cycles: 40025128 heartbeat IPC: 3.99871 cumulative IPC: 3.99749 (Simulation time: 0 hr 7 min 43 sec) 
Heartbeat CPU 0 instructions: 170000002 cycles: 42526578 heartbeat IPC: 3.99768 cumulative IPC: 3.9975 (Simulation time: 0 hr 8 min 10 sec) 
Heartbeat CPU 0 instructions: 180000002 cycles: 45029156 heartbeat IPC: 3.99588 cumulative IPC: 3.99741 (Simulation time: 0 hr 8 min 37 sec) 
Heartbeat CPU 0 instructions: 190000003 cycles: 47531094 heartbeat IPC: 3.9969 cumulative IPC: 3.99738 (Simulation time: 0 hr 9 min 4 sec) 
Heartbeat CPU 0 instructions: 200000002 cycles: 50032543 heartbeat IPC: 3.99768 cumulative IPC: 3.9974 (Simulation time: 0 hr 9 min 30 sec) 

Warmup complete CPU 0 instructions: 200000002 cycles: 50032543 (Simulation time: 0 hr 9 min 30 sec) 

Heartbeat CPU 0 instructions: 210000000 cycles: 58321184 heartbeat IPC: 1.20647 cumulative IPC: 1.20647 (Simulation time: 0 hr 9 min 56 sec) 
Heartbeat CPU 0 instructions: 220000000 cycles: 66385152 heartbeat IPC: 1.24008 cumulative IPC: 1.22305 (Simulation time: 0 hr 10 min 24 sec) 
Heartbeat CPU 0 instructions: 230000001 cycles: 74698607 heartbeat IPC: 1.20287 cumulative IPC: 1.21625 (Simulation time: 0 hr 10 min 52 sec) 
Heartbeat CPU 0 instructions: 240000000 cycles: 82785933 heartbeat IPC: 1.2365 cumulative IPC: 1.22125 (Simulation time: 0 hr 11 min 20 sec) 
Heartbeat CPU 0 instructions: 250000001 cycles: 90900857 heartbeat IPC: 1.2323 cumulative IPC: 1.22344 (Simulation time: 0 hr 11 min 48 sec) 
Heartbeat CPU 0 instructions: 260000000 cycles: 99141840 heartbeat IPC: 1.21345 cumulative IPC: 1.22176 (Simulation time: 0 hr 12 min 15 sec) 
Heartbeat CPU 0 instructions: 270000003 cycles: 107253694 heartbeat IPC: 1.23276 cumulative IPC: 1.22332 (Simulation time: 0 hr 12 min 43 sec) 
Heartbeat CPU 0 instructions: 280000000 cycles: 115434868 heartbeat IPC: 1.22232 cumulative IPC: 1.2232 (Simulation time: 0 hr 13 min 10 sec) 
Heartbeat CPU 0 instructions: 290000000 cycles: 123751596 heartbeat IPC: 1.2024 cumulative IPC: 1.22085 (Simulation time: 0 hr 13 min 36 sec) 
Heartbeat CPU 0 instructions: 300000002 cycles: 131991411 heartbeat IPC: 1.21362 cumulative IPC: 1.22012 (Simulation time: 0 hr 14 min 3 sec) 
Heartbeat CPU 0 instructions: 310000000 cycles: 140332995 heartbeat IPC: 1.19881 cumulative IPC: 1.21816 (Simulation time: 0 hr 14 min 29 sec) 
Heartbeat CPU 0 instructions: 320000004 cycles: 148674495 heartbeat IPC: 1.19883 cumulative IPC: 1.21652 (Simulation time: 0 hr 14 min 56 sec) 
Heartbeat CPU 0 instructions: 330000000 cycles: 157016308 heartbeat IPC: 1.19878 cumulative IPC: 1.21514 (Simulation time: 0 hr 15 min 22 sec) 
Heartbeat CPU 0 instructions: 340000003 cycles: 165253209 heartbeat IPC: 1.21405 cumulative IPC: 1.21506 (Simulation time: 0 hr 15 min 49 sec) 
Heartbeat CPU 0 instructions: 350000000 cycles: 173565390 heartbeat IPC: 1.20305 cumulative IPC: 1.21425 (Simulation time: 0 hr 16 min 15 sec) 
Heartbeat CPU 0 instructions: 360000001 cycles: 181855656 heartbeat IPC: 1.20623 cumulative IPC: 1.21375 (Simulation time: 0 hr 16 min 42 sec) 
Heartbeat CPU 0 instructions: 370000000 cycles: 190116187 heartbeat IPC: 1.21058 cumulative IPC: 1.21356 (Simulation time: 0 hr 17 min 9 sec) 
Heartbeat CPU 0 instructions: 380000002 cycles: 197766800 heartbeat IPC: 1.30709 cumulative IPC: 1.2184 (Simulation time: 0 hr 17 min 40 sec) 
Heartbeat CPU 0 instructions: 390000004 cycles: 205845345 heartbeat IPC: 1.23785 cumulative IPC: 1.21941 (Simulation time: 0 hr 18 min 8 sec) 
Heartbeat CPU 0 instructions: 400000003 cycles: 214106608 heartbeat IPC: 1.21047 cumulative IPC: 1.21896 (Simulation time: 0 hr 18 min 34 sec) 
Heartbeat CPU 0 instructions: 410000002 cycles: 222397447 heartbeat IPC: 1.20615 cumulative IPC: 1.21835 (Simulation time: 0 hr 19 min 1 sec) 
Heartbeat CPU 0 instructions: 420000002 cycles: 230713379 heartbeat IPC: 1.20251 cumulative IPC: 1.21762 (Simulation time: 0 hr 19 min 27 sec) 
Heartbeat CPU 0 instructions: 430000004 cycles: 238543589 heartbeat IPC: 1.27711 cumulative IPC: 1.22009 (Simulation time: 0 hr 19 min 57 sec) 
Heartbeat CPU 0 instructions: 440000000 cycles: 246561292 heartbeat IPC: 1.24724 cumulative IPC: 1.2212 (Simulation time: 0 hr 20 min 26 sec) 
Heartbeat CPU 0 instructions: 450000002 cycles: 253816230 heartbeat IPC: 1.37837 cumulative IPC: 1.22679 (Simulation time: 0 hr 20 min 59 sec) 
Heartbeat CPU 0 instructions: 460000001 cycles: 262105618 heartbeat IPC: 1.20636 cumulative IPC: 1.22599 (Simulation time: 0 hr 21 min 26 sec) 
Heartbeat CPU 0 instructions: 470000003 cycles: 270372454 heartbeat IPC: 1.20965 cumulative IPC: 1.22538 (Simulation time: 0 hr 21 min 53 sec) 
Heartbeat CPU 0 instructions: 480000002 cycles: 278586517 heartbeat IPC: 1.21742 cumulative IPC: 1.22509 (Simulation time: 0 hr 22 min 20 sec) 
Heartbeat CPU 0 instructions: 490000000 cycles: 294084429 heartbeat IPC: 0.645248 cumulative IPC: 1.18827 (Simulation time: 0 hr 23 min 38 sec) 
Heartbeat CPU 0 instructions: 500000003 cycles: 300135699 heartbeat IPC: 1.65255 cumulative IPC: 1.19951 (Simulation time: 0 hr 24 min 28 sec) 
Heartbeat CPU 0 instructions: 510000000 cycles: 306187553 heartbeat IPC: 1.65239 cumulative IPC: 1.2102 (Simulation time: 0 hr 25 min 18 sec) 
Heartbeat CPU 0 instructions: 520000000 cycles: 312225930 heartbeat IPC: 1.65607 cumulative IPC: 1.22047 (Simulation time: 0 hr 26 min 8 sec) 
Heartbeat CPU 0 instructions: 530000000 cycles: 318271942 heartbeat IPC: 1.65398 cumulative IPC: 1.23024 (Simulation time: 0 hr 26 min 59 sec) 
Heartbeat CPU 0 instructions: 540000000 cycles: 324313503 heartbeat IPC: 1.6552 cumulative IPC: 1.2396 (Simulation time: 0 hr 27 min 49 sec) 
Heartbeat CPU 0 instructions: 550000002 cycles: 330353916 heartbeat IPC: 1.65552 cumulative IPC: 1.24857 (Simulation time: 0 hr 28 min 39 sec) 
Heartbeat CPU 0 instructions: 560000000 cycles: 337783057 heartbeat IPC: 1.34605 cumulative IPC: 1.25108 (Simulation time: 0 hr 29 min 34 sec) 
Heartbeat CPU 0 instructions: 570000003 cycles: 350789921 heartbeat IPC: 0.768825 cumulative IPC: 1.23023 (Simulation time: 0 hr 30 min 56 sec) 
Heartbeat CPU 0 instructions: 580000001 cycles: 356833886 heartbeat IPC: 1.65454 cumulative IPC: 1.23859 (Simulation time: 0 hr 31 min 46 sec) 
Heartbeat CPU 0 instructions: 590000003 cycles: 362878133 heartbeat IPC: 1.65447 cumulative IPC: 1.24662 (Simulation time: 0 hr 32 min 36 sec) 
Heartbeat CPU 0 instructions: 600000000 cycles: 368917501 heartbeat IPC: 1.6558 cumulative IPC: 1.25437 (Simulation time: 0 hr 33 min 27 sec) 
Heartbeat CPU 0 instructions: 610000002 cycles: 374967057 heartbeat IPC: 1.65301 cumulative IPC: 1.26179 (Simulation time: 0 hr 34 min 17 sec) 
Heartbeat CPU 0 instructions: 620000003 cycles: 381002958 heartbeat IPC: 1.65675 cumulative IPC: 1.269 (Simulation time: 0 hr 35 min 7 sec) 
Heartbeat CPU 0 instructions: 630000000 cycles: 387050187 heartbeat IPC: 1.65365 cumulative IPC: 1.2759 (Simulation time: 0 hr 35 min 57 sec) 
Heartbeat CPU 0 instructions: 640000000 cycles: 401101131 heartbeat IPC: 0.711696 cumulative IPC: 1.25332 (Simulation time: 0 hr 37 min 24 sec) 
Heartbeat CPU 0 instructions: 650000004 cycles: 407143922 heartbeat IPC: 1.65487 cumulative IPC: 1.26011 (Simulation time: 0 hr 38 min 14 sec) 
Heartbeat CPU 0 instructions: 660000004 cycles: 413193978 heartbeat IPC: 1.65288 cumulative IPC: 1.26665 (Simulation time: 0 hr 39 min 6 sec) 
Heartbeat CPU 0 instructions: 670000001 cycles: 419231680 heartbeat IPC: 1.65626 cumulative IPC: 1.27303 (Simulation time: 0 hr 39 min 56 sec) 
Heartbeat CPU 0 instructions: 680000003 cycles: 425278849 heartbeat IPC: 1.65367 cumulative IPC: 1.27916 (Simulation time: 0 hr 40 min 47 sec) 
Heartbeat CPU 0 instructions: 690000003 cycles: 431319097 heartbeat IPC: 1.65556 cumulative IPC: 1.28512 (Simulation time: 0 hr 41 min 40 sec) 
Heartbeat CPU 0 instructions: 700000001 cycles: 437362472 heartbeat IPC: 1.6547 cumulative IPC: 1.29089 (Simulation time: 0 hr 42 min 31 sec) 
Heartbeat CPU 0 instructions: 710000003 cycles: 450671806 heartbeat IPC: 0.751353 cumulative IPC: 1.27297 (Simulation time: 0 hr 43 min 51 sec) 
Heartbeat CPU 0 instructions: 720000003 cycles: 458414277 heartbeat IPC: 1.29158 cumulative IPC: 1.27332 (Simulation time: 0 hr 44 min 51 sec) 
Heartbeat CPU 0 instructions: 730000003 cycles: 464461164 heartbeat IPC: 1.65374 cumulative IPC: 1.27887 (Simulation time: 0 hr 45 min 41 sec) 
Heartbeat CPU 0 instructions: 740000002 cycles: 470504191 heartbeat IPC: 1.6548 cumulative IPC: 1.28427 (Simulation time: 0 hr 46 min 31 sec) 
Heartbeat CPU 0 instructions: 750000004 cycles: 476546953 heartbeat IPC: 1.65487 cumulative IPC: 1.28952 (Simulation time: 0 hr 47 min 21 sec) 
Heartbeat CPU 0 instructions: 760000001 cycles: 482594178 heartbeat IPC: 1.65365 cumulative IPC: 1.29461 (Simulation time: 0 hr 48 min 12 sec) 
Heartbeat CPU 0 instructions: 770000001 cycles: 488630847 heartbeat IPC: 1.65654 cumulative IPC: 1.29959 (Simulation time: 0 hr 49 min 2 sec) 
Heartbeat CPU 0 instructions: 780000001 cycles: 494680915 heartbeat IPC: 1.65287 cumulative IPC: 1.3044 (Simulation time: 0 hr 49 min 52 sec) 
Heartbeat CPU 0 instructions: 790000003 cycles: 508751024 heartbeat IPC: 0.710727 cumulative IPC: 1.28619 (Simulation time: 0 hr 51 min 18 sec) 
Heartbeat CPU 0 instructions: 800000001 cycles: 514795903 heartbeat IPC: 1.65429 cumulative IPC: 1.29098 (Simulation time: 0 hr 52 min 8 sec) 
Heartbeat CPU 0 instructions: 810000001 cycles: 520841397 heartbeat IPC: 1.65412 cumulative IPC: 1.29564 (Simulation time: 0 hr 52 min 58 sec) 
Heartbeat CPU 0 instructions: 820000000 cycles: 526878693 heartbeat IPC: 1.65637 cumulative IPC: 1.30021 (Simulation time: 0 hr 53 min 49 sec) 
Heartbeat CPU 0 instructions: 830000002 cycles: 532927384 heartbeat IPC: 1.65325 cumulative IPC: 1.30463 (Simulation time: 0 hr 54 min 40 sec) 
Heartbeat CPU 0 instructions: 840000004 cycles: 538968901 heartbeat IPC: 1.65521 cumulative IPC: 1.30896 (Simulation time: 0 hr 55 min 32 sec) 
Heartbeat CPU 0 instructions: 850000004 cycles: 545011111 heartbeat IPC: 1.65502 cumulative IPC: 1.31319 (Simulation time: 0 hr 56 min 23 sec) 
Heartbeat CPU 0 instructions: 860000000 cycles: 559306259 heartbeat IPC: 0.699538 cumulative IPC: 1.29596 (Simulation time: 0 hr 57 min 49 sec) 
Heartbeat CPU 0 instructions: 870000001 cycles: 565346256 heartbeat IPC: 1.65563 cumulative IPC: 1.30018 (Simulation time: 0 hr 58 min 40 sec) 
Heartbeat CPU 0 instructions: 880000004 cycles: 571395852 heartbeat IPC: 1.653 cumulative IPC: 1.30427 (Simulation time: 0 hr 59 min 30 sec) 
Heartbeat CPU 0 instructions: 890000004 cycles: 577433845 heartbeat IPC: 1.65618 cumulative IPC: 1.3083 (Simulation time: 1 hr 0 min 21 sec) 
Heartbeat CPU 0 instructions: 900000003 cycles: 583478034 heartbeat IPC: 1.65448 cumulative IPC: 1.31222 (Simulation time: 1 hr 1 min 12 sec) 
Heartbeat CPU 0 instructions: 910000000 cycles: 589523685 heartbeat IPC: 1.65408 cumulative IPC: 1.31605 (Simulation time: 1 hr 2 min 2 sec) 
Heartbeat CPU 0 instructions: 920000000 cycles: 595560533 heartbeat IPC: 1.65649 cumulative IPC: 1.31982 (Simulation time: 1 hr 2 min 53 sec) 
Heartbeat CPU 0 instructions: 930000002 cycles: 601610969 heartbeat IPC: 1.65277 cumulative IPC: 1.32347 (Simulation time: 1 hr 3 min 43 sec) 
Heartbeat CPU 0 instructions: 940000000 cycles: 615954320 heartbeat IPC: 0.697187 cumulative IPC: 1.3076 (Simulation time: 1 hr 5 min 11 sec) 
Heartbeat CPU 0 instructions: 950000002 cycles: 621999830 heartbeat IPC: 1.65412 cumulative IPC: 1.31126 (Simulation time: 1 hr 6 min 3 sec) 
Heartbeat CPU 0 instructions: 960000000 cycles: 628044295 heartbeat IPC: 1.65441 cumulative IPC: 1.31485 (Simulation time: 1 hr 6 min 55 sec) 
Heartbeat CPU 0 instructions: 970000002 cycles: 634082755 heartbeat IPC: 1.65605 cumulative IPC: 1.31838 (Simulation time: 1 hr 7 min 48 sec) 
Heartbeat CPU 0 instructions: 980000001 cycles: 640132808 heartbeat IPC: 1.65288 cumulative IPC: 1.32181 (Simulation time: 1 hr 8 min 40 sec) 
Heartbeat CPU 0 instructions: 990000003 cycles: 646171954 heartbeat IPC: 1.65586 cumulative IPC: 1.32519 (Simulation time: 1 hr 9 min 32 sec) 
Heartbeat CPU 0 instructions: 1000000003 cycles: 652216156 heartbeat IPC: 1.65448 cumulative IPC: 1.3285 (Simulation time: 1 hr 10 min 24 sec) 
Heartbeat CPU 0 instructions: 1010000002 cycles: 667120707 heartbeat IPC: 0.670936 cumulative IPC: 1.31262 (Simulation time: 1 hr 11 min 55 sec) 
Heartbeat CPU 0 instructions: 1020000002 cycles: 673162266 heartbeat IPC: 1.6552 cumulative IPC: 1.31594 (Simulation time: 1 hr 12 min 47 sec) 
Heartbeat CPU 0 instructions: 1030000000 cycles: 679212986 heartbeat IPC: 1.6527 cumulative IPC: 1.31918 (Simulation time: 1 hr 13 min 39 sec) 
Heartbeat CPU 0 instructions: 1040000000 cycles: 685249454 heartbeat IPC: 1.6566 cumulative IPC: 1.32238 (Simulation time: 1 hr 14 min 31 sec) 
Heartbeat CPU 0 instructions: 1050000000 cycles: 691295369 heartbeat IPC: 1.65401 cumulative IPC: 1.32551 (Simulation time: 1 hr 15 min 24 sec) 
Heartbeat CPU 0 instructions: 1060000000 cycles: 697338473 heartbeat IPC: 1.65478 cumulative IPC: 1.32858 (Simulation time: 1 hr 16 min 15 sec) 
Heartbeat CPU 0 instructions: 1070000001 cycles: 703378947 heartbeat IPC: 1.6555 cumulative IPC: 1.33161 (Simulation time: 1 hr 17 min 9 sec) 
Heartbeat CPU 0 instructions: 1080000000 cycles: 713713096 heartbeat IPC: 0.967665 cumulative IPC: 1.32594 (Simulation time: 1 hr 18 min 15 sec) 
Heartbeat CPU 0 instructions: 1090000000 cycles: 723633680 heartbeat IPC: 1.00801 cumulative IPC: 1.32126 (Simulation time: 1 hr 19 min 28 sec) 
Heartbeat CPU 0 instructions: 1100000000 cycles: 729679500 heartbeat IPC: 1.65404 cumulative IPC: 1.32422 (Simulation time: 1 hr 20 min 20 sec) 
Heartbeat CPU 0 instructions: 1110000002 cycles: 735723549 heartbeat IPC: 1.65452 cumulative IPC: 1.32713 (Simulation time: 1 hr 21 min 12 sec) 
Heartbeat CPU 0 instructions: 1120000000 cycles: 741761178 heartbeat IPC: 1.65628 cumulative IPC: 1.33 (Simulation time: 1 hr 22 min 4 sec) 
Heartbeat CPU 0 instructions: 1130000000 cycles: 747809521 heartbeat IPC: 1.65335 cumulative IPC: 1.3328 (Simulation time: 1 hr 22 min 55 sec) 
Heartbeat CPU 0 instructions: 1140000000 cycles: 753847776 heartbeat IPC: 1.65611 cumulative IPC: 1.33558 (Simulation time: 1 hr 23 min 47 sec) 
Heartbeat CPU 0 instructions: 1150000002 cycles: 759895157 heartbeat IPC: 1.65361 cumulative IPC: 1.33829 (Simulation time: 1 hr 24 min 39 sec) 
Heartbeat CPU 0 instructions: 1160000001 cycles: 774060542 heartbeat IPC: 0.705946 cumulative IPC: 1.32592 (Simulation time: 1 hr 26 min 7 sec) 
Heartbeat CPU 0 instructions: 1170000000 cycles: 780104157 heartbeat IPC: 1.65464 cumulative IPC: 1.32864 (Simulation time: 1 hr 26 min 58 sec) 
Heartbeat CPU 0 instructions: 1180000000 cycles: 786153315 heartbeat IPC: 1.65312 cumulative IPC: 1.3313 (Simulation time: 1 hr 27 min 50 sec) 
Heartbeat CPU 0 instructions: 1190000001 cycles: 792188525 heartbeat IPC: 1.65694 cumulative IPC: 1.33395 (Simulation time: 1 hr 28 min 42 sec) 
Heartbeat CPU 0 instructions: 1200000000 cycles: 798236880 heartbeat IPC: 1.65334 cumulative IPC: 1.33653 (Simulation time: 1 hr 29 min 33 sec) 
Finished CPU 0 instructions: 1000000000 cycles: 748204347 cumulative IPC: 1.33653 (Simulation time: 1 hr 29 min 33 sec) 

ChampSim completed all CPUs

Region of Interest Statistics

CPU 0 cumulative IPC: 1.33653 instructions: 1000000000 cycles: 748204347
cpu0_DTLB TOTAL     ACCESS:  165020025  HIT:  164965066  MISS:      54959
cpu0_DTLB LOAD      ACCESS:  113739835  HIT:  113700586  MISS:      39249
cpu0_DTLB RFO       ACCESS:   51280190  HIT:   51264480  MISS:      15710
cpu0_DTLB PREFETCH  ACCESS:          0  HIT:          0  MISS:          0
cpu0_DTLB WRITEBACK ACCESS:          0  HIT:          0  MISS:          0
cpu0_DTLB TRANSLATION ACCESS:          0  HIT:          0  MISS:          0
cpu0_DTLB PREFETCH  REQUESTED:          0  ISSUED:          0  USEFUL:          0  USELESS:          0
cpu0_DTLB AVERAGE MISS LATENCY: 79.1704 cycles
cpu0_ITLB TOTAL     ACCESS:   66374030  HIT:   66374023  MISS:          7
cpu0_ITLB LOAD      ACCESS:   66374030  HIT:   66374023  MISS:          7
cpu0_ITLB RFO       ACCESS:          0  HIT:          0  MISS:          0
cpu0_ITLB PREFETCH  ACCESS:          0  HIT:          0  MISS:          0
cpu0_ITLB WRITEBACK ACCESS:          0  HIT:          0  MISS:          0
cpu0_ITLB TRANSLATION ACCESS:          0  HIT:          0  MISS:          0
cpu0_ITLB PREFETCH  REQUESTED:          0  ISSUED:          0  USEFUL:          0  USELESS:          0
cpu0_ITLB AVERAGE MISS LATENCY: 401 cycles
cpu0_L1I TOTAL     ACCESS:   64687962  HIT:   64687891  MISS:         71
cpu0_L1I LOAD      ACCESS:   64687962  HIT:   64687891  MISS:         71
cpu0_L1I RFO       ACCESS:          0  HIT:          0  MISS:          0
cpu0_L1I PREFETCH  ACCESS:          0  HIT:          0  MISS:          0
cpu0_L1I WRITEBACK ACCESS:          0  HIT:          0  MISS:          0
cpu0_L1I TRANSLATION ACCESS:          0  HIT:          0  MISS:          0
cpu0_L1I PREFETCH  REQUESTED:          0  ISSUED:          0  USEFUL:          0  USELESS:          0
cpu0_L1I AVERAGE MISS LATENCY: 189.662 cycles
cpu0_STLB TOTAL     ACCESS:      54966  HIT:      37395  MISS:      17571
cpu0_STLB LOAD      ACCESS:      39256  HIT:      27192  MISS:      12064
cpu0_STLB RFO       ACCESS:      15710  HIT:      10203  MISS:       5507
cpu0_STLB PREFETCH  ACCESS:          0  HIT:          0  MISS:          0
cpu0_STLB WRITEBACK ACCESS:          0  HIT:          0  MISS:          0
cpu0_STLB TRANSLATION ACCESS:          0  HIT:          0  MISS:          0
cpu0_STLB PREFETCH  REQUESTED:          0  ISSUED:          0  USEFUL:          0  USELESS:          0
cpu0_STLB AVERAGE MISS LATENCY: 213.378 cycles
cpu0_L1D TOTAL     ACCESS:  206666753  HIT:  204164289  MISS:    2502464
cpu0_L1D LOAD      ACCESS:  117211778  HIT:  115709020  MISS:    1502758
cpu0_L1D RFO       ACCESS:   89437441  HIT:   88437774  MISS:     999667
cpu0_L1D PREFETCH  ACCESS:          0  HIT:          0  MISS:          0
cpu0_L1D WRITEBACK ACCESS:          0  HIT:          0  MISS:          0
cpu0_L1D TRANSLATION ACCESS:      17534  HIT:      17495  MISS:         39
cpu0_L1D PREFETCH  REQUESTED:          0  ISSUED:          0  USEFUL:          0  USELESS:          0
cpu0_L1D AVERAGE MISS LATENCY: 414.778 cycles
cpu0_L2C TOTAL     ACCESS:    4754148  HIT:    2166395  MISS:    2587753
cpu0_L2C LOAD      ACCESS:    1502829  HIT:    1121563  MISS:     381266
cpu0_L2C RFO       ACCESS:     999667  HIT:        432  MISS:     999235
cpu0_L2C PREFETCH  ACCESS:    1251844  HIT:      46642  MISS:    1205202
cpu0_L2C WRITEBACK ACCESS:     999769  HIT:     997758  MISS:       2011
cpu0_L2C TRANSLATION ACCESS:         39  HIT:          0  MISS:         39
cpu0_L2C PREFETCH  REQUESTED:    9308662  ISSUED:    8547282  USEFUL:    1413924  USELESS:      82951
cpu0_L2C AVERAGE MISS LATENCY: 454.144 cycles
LLC TOTAL     ACCESS:    7137032  HIT:    4471241  MISS:    2665791
LLC LOAD      ACCESS:      89509  HIT:        801  MISS:      88708
LLC RFO       ACCESS:     999235  HIT:        104  MISS:     999131
LLC PREFETCH  ACCESS:    5048944  HIT:    3473077  MISS:    1575867
LLC WRITEBACK ACCESS:     999305  HIT:     997259  MISS:       2046
LLC TRANSLATION ACCESS:         39  HIT:          0  MISS:         39
LLC PREFETCH  REQUESTED:          0  ISSUED:          0  USEFUL:          0  USELESS:          0
LLC AVERAGE MISS LATENCY: 821.662 cycles
Printing the final status 

DRAM Statistics
 CHANNEL 0
 RQ ROW_BUFFER_HIT:     449672  ROW_BUFFER_MISS:    2214073
 DBUS AVG_CONGESTED_CYCLE:    3.98284
 WQ ROW_BUFFER_HIT:     122775  ROW_BUFFER_MISS:     875873  FULL:          0


CPU 0 Branch Prediction Accuracy: 90.3742% MPKI: 11.5802 Average ROB Occupancy at Mispredict: 21.4103
Branch type MPKI
BRANCH_DIRECT_JUMP: 8e-06
BRANCH_INDIRECT: 0
BRANCH_CONDITIONAL: 11.5801
BRANCH_DIRECT_CALL: 8e-06
BRANCH_INDIRECT_CALL: 0
BRANCH_RETURN: 9e-06

***************** Done with 654.roms_s-842B.champsimtrace.xz using ppf-spp-dev-2, on Wed Apr 20 00:20:48 CDT 2022 ******************
